version 2
run General-4-20230921-22:36:11-7122
attr configname General
attr datetime 20230921-22:36:11
attr experiment General
attr inifile omnetpp.ini
attr iterationvars ""
attr iterationvarsf ""
attr measurement ""
attr network Network3
attr processid 7122
attr repetition 4
attr replication #4
attr resultdir results
attr runnumber 4
attr seedset 4
param Network3.node[*].transmissionTime "uniform(1s, 2s)"
param Network3.node[*].delayTime "uniform(0.01s, 0.2s)"
param Network3.node[*].processingTime exponential(0.01s)
param Network3.node[0].lossProbability 0
param Network3.node[1].lossProbability 0.2
param Network3.node[2].lossProbability 0.2
param Network3.node[3].lossProbability "0.2 / 2"
param Network3.node[4].lossProbability "0.2 / 2"
param Network3.node[6].lossProbability "0.2 * 2"
param Network3.node[7].lossProbability "0.2 * 2"
param Network3.node[5].lossProbability "0.2 * 3"

vector 0 Network3.node[0] txVector ETV
vector 1 Network3.node[1] txVector ETV
vector 2 Network3.node[3] txVector ETV
vector 3 Network3.node[2] txVector ETV
vector 4 Network3.node[4] txVector ETV
vector 5 Network3.node[6] txVector ETV
vector 6 Network3.node[7] txVector ETV
vector 7 Network3.node[5] rxVector ETV
0	1	0.193735669288	0
0	1	0.193735669288	1
0	26	2.094357123985	2
0	26	2.094357123985	3
0	47	4.077757797358	4
0	47	4.077757797358	5
0	72	5.524106997918	6
0	72	5.524106997918	7
0	97	7.048511081995	8
0	97	7.048511081995	9
0	122	8.301420691112	10
0	122	8.301420691112	11
0	144	9.706245903779	12
0	144	9.706245903779	13
0	162	11.220979877902	14
0	162	11.220979877902	15
0	187	12.330797997225	16
0	187	12.330797997225	17
0	209	13.50820597882	18
0	209	13.50820597882	19
0	230	14.511132574329	20
0	230	14.511132574329	21
0	252	16.305555890003	22
0	252	16.305555890003	23
0	277	17.321527165981	24
0	277	17.321527165981	25
0	302	19.257421000084	26
0	302	19.257421000084	27
0	323	20.392173605893	28
0	323	20.392173605893	29
0	348	22.060285857568	30
0	348	22.060285857568	31
0	351	24.016090453525	32
0	351	24.016090453525	33
0	365	25.329457079681	34
0	365	25.329457079681	35
0	390	26.524404767357	36
0	390	26.524404767357	37
0	412	28.261856744221	38
0	412	28.261856744221	39
0	433	29.385084635966	40
0	433	29.385084635966	41
0	458	30.475676997021	42
0	458	30.475676997021	43
0	480	31.912700470925	44
0	480	31.912700470925	45
0	505	33.316510731044	46
0	505	33.316510731044	47
0	527	34.610953813108	48
0	527	34.610953813108	49
0	541	36.207457089952	50
0	541	36.207457089952	51
0	566	37.99206782567	52
0	566	37.99206782567	53
0	591	39.420222806201	54
0	591	39.420222806201	55
0	616	40.6153339666	56
0	616	40.6153339666	57
0	641	41.734815883139	58
0	641	41.734815883139	59
0	644	42.872343729405	60
0	644	42.872343729405	61
0	669	44.404572253736	62
0	669	44.404572253736	63
0	691	46.397563461136	64
0	691	46.397563461136	65
0	713	48.193476266848	66
0	713	48.193476266848	67
0	738	49.842774816012	68
0	738	49.842774816012	69
0	760	51.497530762028	70
0	760	51.497530762028	71
0	785	53.369914744902	72
0	785	53.369914744902	73
0	807	54.928090277049	74
0	807	54.928090277049	75
0	829	55.948151857979	76
0	829	55.948151857979	77
0	832	57.837807696932	78
0	832	57.837807696932	79
0	857	59.518496731916	80
0	857	59.518496731916	81
0	860	60.73644991933	82
0	860	60.73644991933	83
0	863	62.214800449709	84
0	863	62.214800449709	85
0	885	63.311650872153	86
0	885	63.311650872153	87
0	907	64.416572339522	88
0	907	64.416572339522	89
0	932	65.667927056007	90
0	932	65.667927056007	91
0	954	67.651892766744	92
0	954	67.651892766744	93
0	976	69.365310197385	94
0	976	69.365310197385	95
0	998	70.985933687692	96
0	998	70.985933687692	97
0	1023	72.74711924248	98
0	1023	72.74711924248	99
0	1048	74.587531031264	100
0	1048	74.587531031264	101
0	1073	76.516045378676	102
0	1073	76.516045378676	103
0	1084	78.349857296717	104
0	1084	78.349857296717	105
0	1109	80.32645430478	106
0	1109	80.32645430478	107
0	1119	81.908974385045	108
0	1119	81.908974385045	109
0	1144	83.802322347339	110
0	1144	83.802322347339	111
0	1169	85.439373415818	112
0	1169	85.439373415818	113
0	1191	86.535418561816	114
0	1191	86.535418561816	115
0	1216	88.378411264781	116
0	1216	88.378411264781	117
0	1230	89.784074154141	118
0	1230	89.784074154141	119
0	1249	90.964004261343	120
0	1249	90.964004261343	121
0	1252	92.505855717387	122
0	1252	92.505855717387	123
0	1274	93.783153210923	124
0	1274	93.783153210923	125
0	1292	94.908639810437	126
0	1292	94.908639810437	127
0	1310	96.447660890331	128
0	1310	96.447660890331	129
0	1332	97.950829709105	130
0	1332	97.950829709105	131
0	1354	99.709949769236	132
0	1354	99.709949769236	133
0	1379	101.235800422652	134
0	1379	101.235800422652	135
0	1382	102.723364806658	136
0	1382	102.723364806658	137
0	1404	104.336457234266	138
0	1404	104.336457234266	139
0	1429	106.313615116914	140
0	1429	106.313615116914	141
0	1454	108.103644054308	142
0	1454	108.103644054308	143
0	1460	109.640959190363	144
0	1460	109.640959190363	145
0	1482	111.207152367029	146
0	1482	111.207152367029	147
0	1507	112.537774128532	148
0	1507	112.537774128532	149
0	1532	114.383718455601	150
0	1532	114.383718455601	151
0	1554	115.988329034689	152
0	1554	115.988329034689	153
0	1576	117.161877517746	154
0	1576	117.161877517746	155
0	1598	118.861071346252	156
0	1598	118.861071346252	157
0	1620	120.50618915392	158
0	1620	120.50618915392	159
0	1645	122.393525947741	160
0	1645	122.393525947741	161
0	1670	124.193459785235	162
0	1670	124.193459785235	163
0	1695	125.902175994747	164
0	1695	125.902175994747	165
0	1720	127.014336673001	166
0	1720	127.014336673001	167
0	1745	128.469361290259	168
0	1745	128.469361290259	169
0	1770	129.938328130327	170
0	1770	129.938328130327	171
0	1792	131.303339439135	172
0	1792	131.303339439135	173
0	1798	132.751631904084	174
0	1798	132.751631904084	175
0	1820	134.266273689147	176
0	1820	134.266273689147	177
0	1845	135.948693469323	178
0	1845	135.948693469323	179
0	1867	137.469573762657	180
0	1867	137.469573762657	181
0	1892	138.755971888004	182
0	1892	138.755971888004	183
0	1917	139.930858272284	184
0	1917	139.930858272284	185
0	1939	141.837166001012	186
0	1939	141.837166001012	187
0	1953	142.894114439066	188
0	1953	142.894114439066	189
0	1971	143.906837276805	190
0	1971	143.906837276805	191
0	1990	145.877981822163	192
0	1990	145.877981822163	193
0	2015	147.367689488612	194
0	2015	147.367689488612	195
0	2040	148.907591078587	196
0	2040	148.907591078587	197
0	2062	149.983067834674	198
0	2062	149.983067834674	199
0	2084	151.543180819059	200
0	2084	151.543180819059	201
0	2109	153.274403690051	202
0	2109	153.274403690051	203
0	2123	154.342970912268	204
0	2123	154.342970912268	205
0	2137	155.759934097685	206
0	2137	155.759934097685	207
0	2162	156.847756788524	208
0	2162	156.847756788524	209
0	2180	158.545851990737	210
0	2180	158.545851990737	211
0	2205	160.111566034302	212
0	2205	160.111566034302	213
0	2230	161.565036310738	214
0	2230	161.565036310738	215
0	2255	162.984218861366	216
0	2255	162.984218861366	217
0	2280	164.585011607426	218
0	2280	164.585011607426	219
0	2302	166.295807220665	220
0	2302	166.295807220665	221
0	2327	168.23108152572	222
0	2327	168.23108152572	223
0	2352	169.536077904905	224
0	2352	169.536077904905	225
0	2370	171.253943175235	226
0	2370	171.253943175235	227
0	2395	172.411054628826	228
0	2395	172.411054628826	229
0	2420	173.448409809656	230
0	2420	173.448409809656	231
0	2441	174.764995834948	232
0	2441	174.764995834948	233
0	2459	176.403497098404	234
0	2459	176.403497098404	235
0	2484	177.463319786516	236
0	2484	177.463319786516	237
0	2506	178.54853782935	238
0	2506	178.54853782935	239
0	2528	180.122519090696	240
0	2528	180.122519090696	241
0	2553	181.256807774928	242
0	2553	181.256807774928	243
0	2575	182.577585498028	244
0	2575	182.577585498028	245
0	2597	183.85238525194	246
0	2597	183.85238525194	247
0	2622	184.938595227589	248
0	2622	184.938595227589	249
0	2647	185.978601662367	250
0	2647	185.978601662367	251
0	2668	187.23635719127	252
0	2668	187.23635719127	253
0	2689	189.199707894511	254
0	2689	189.199707894511	255
0	2692	190.659925095895	256
0	2692	190.659925095895	257
0	2714	192.054078160477	258
0	2714	192.054078160477	259
0	2736	193.228197832517	260
0	2736	193.228197832517	261
0	2750	195.110487357173	262
0	2750	195.110487357173	263
0	2775	196.702587319696	264
0	2775	196.702587319696	265
0	2793	198.252488158336	266
0	2793	198.252488158336	267
0	2815	199.816278277123	268
0	2815	199.816278277123	269
0	2840	200.952986892471	270
0	2840	200.952986892471	271
0	2865	202.79089168475	272
0	2865	202.79089168475	273
0	2887	204.380313024083	274
0	2887	204.380313024083	275
0	2912	206.036910158973	276
0	2912	206.036910158973	277
0	2934	207.181944558089	278
0	2934	207.181944558089	279
0	2956	208.998578740442	280
0	2956	208.998578740442	281
0	2981	210.711928139133	282
0	2981	210.711928139133	283
0	3006	212.157745380113	284
0	3006	212.157745380113	285
0	3031	213.270452478826	286
0	3031	213.270452478826	287
0	3053	215.068180564018	288
0	3053	215.068180564018	289
0	3067	216.278532634648	290
0	3067	216.278532634648	291
0	3089	217.971126364703	292
0	3089	217.971126364703	293
0	3099	219.841041914579	294
0	3099	219.841041914579	295
0	3121	221.397705770955	296
0	3121	221.397705770955	297
0	3142	222.942337727799	298
0	3142	222.942337727799	299
0	3164	224.163165496821	300
0	3164	224.163165496821	301
0	3189	225.379918479519	302
0	3189	225.379918479519	303
0	3214	226.409467545962	304
0	3214	226.409467545962	305
0	3236	227.689805466142	306
0	3236	227.689805466142	307
0	3258	228.737757073176	308
0	3258	228.737757073176	309
0	3283	230.444325125237	310
0	3283	230.444325125237	311
0	3308	232.36429729771	312
0	3308	232.36429729771	313
0	3330	233.84108297147	314
0	3330	233.84108297147	315
0	3355	235.362335107915	316
0	3355	235.362335107915	317
0	3376	236.531398432257	318
0	3376	236.531398432257	319
0	3398	237.865870112481	320
0	3398	237.865870112481	321
0	3423	239.475242853558	322
0	3423	239.475242853558	323
1	4	0.205631491707	0
1	4	0.205631491707	1
1	4	0.205631491707	2
1	29	2.106146503787	3
1	29	2.106146503787	4
1	29	2.106146503787	5
1	68	4.192976592066	6
1	68	4.192976592066	7
1	68	4.192976592066	8
1	83	5.573456048028	9
1	83	5.573456048028	10
1	83	5.573456048028	11
1	100	7.058996741586	12
1	100	7.058996741586	13
1	100	7.058996741586	14
1	125	8.315443012089	15
1	125	8.315443012089	16
1	125	8.315443012089	17
1	166	11.242500743241	18
1	166	11.242500743241	19
1	166	11.242500743241	20
1	190	12.342458876628	21
1	190	12.342458876628	22
1	190	12.342458876628	23
1	212	13.539144861304	24
1	212	13.539144861304	25
1	212	13.539144861304	26
1	233	14.526385653924	27
1	233	14.526385653924	28
1	233	14.526385653924	29
1	256	16.323392963502	30
1	256	16.323392963502	31
1	256	16.323392963502	32
1	281	17.3384578669	33
1	281	17.3384578669	34
1	281	17.3384578669	35
1	305	19.280893457294	36
1	305	19.280893457294	37
1	305	19.280893457294	38
1	326	20.40524239765	39
1	326	20.40524239765	40
1	326	20.40524239765	41
1	357	24.072259764365	42
1	357	24.072259764365	43
1	357	24.072259764365	44
1	368	25.344468082585	45
1	368	25.344468082585	46
1	368	25.344468082585	47
1	393	26.538461264306	48
1	393	26.538461264306	49
1	393	26.538461264306	50
1	416	28.277962084841	51
1	416	28.277962084841	52
1	416	28.277962084841	53
1	437	29.402582116166	54
1	437	29.402582116166	55
1	437	29.402582116166	56
1	464	30.5057854237	57
1	464	30.5057854237	58
1	464	30.5057854237	59
1	483	31.931079171256	60
1	483	31.931079171256	61
1	483	31.931079171256	62
1	508	33.335027087691	63
1	508	33.335027087691	64
1	508	33.335027087691	65
1	531	34.637836805725	66
1	531	34.637836805725	67
1	531	34.637836805725	68
1	544	36.217495891509	69
1	544	36.217495891509	70
1	544	36.217495891509	71
1	569	38.009116118497	72
1	569	38.009116118497	73
1	569	38.009116118497	74
1	610	39.537906283258	75
1	610	39.537906283258	76
1	610	39.537906283258	77
1	622	40.641239361811	78
1	622	40.641239361811	79
1	622	40.641239361811	80
1	658	42.922912746364	81
1	658	42.922912746364	82
1	658	42.922912746364	83
1	672	44.419833018208	84
1	672	44.419833018208	85
1	672	44.419833018208	86
1	694	46.407571273131	87
1	694	46.407571273131	88
1	694	46.407571273131	89
1	727	48.249681051026	90
1	727	48.249681051026	91
1	727	48.249681051026	92
1	741	49.85744749501	93
1	741	49.85744749501	94
1	741	49.85744749501	95
1	763	51.511234024398	96
1	763	51.511234024398	97
1	763	51.511234024398	98
1	789	53.402632009945	99
1	789	53.402632009945	100
1	789	53.402632009945	101
1	810	54.947664581596	102
1	810	54.947664581596	103
1	810	54.947664581596	104
1	836	57.855565414907	105
1	836	57.855565414907	106
1	836	57.855565414907	107
1	867	62.231418640522	108
1	867	62.231418640522	109
1	867	62.231418640522	110
1	888	63.32424795922	111
1	888	63.32424795922	112
1	888	63.32424795922	113
1	910	64.427222241853	114
1	910	64.427222241853	115
1	910	64.427222241853	116
1	936	65.683557837663	117
1	936	65.683557837663	118
1	936	65.683557837663	119
1	957	67.668013217841	120
1	957	67.668013217841	121
1	957	67.668013217841	122
1	982	69.391761912151	123
1	982	69.391761912151	124
1	982	69.391761912151	125
1	1005	71.017104576372	126
1	1005	71.017104576372	127
1	1005	71.017104576372	128
1	1026	72.775573369817	129
1	1026	72.775573369817	130
1	1026	72.775573369817	131
1	1052	74.60042034238	132
1	1052	74.60042034238	133
1	1052	74.60042034238	134
1	1076	76.536258558959	135
1	1076	76.536258558959	136
1	1076	76.536258558959	137
1	1103	78.433460955557	138
1	1103	78.433460955557	139
1	1103	78.433460955557	140
1	1125	81.951097480084	141
1	1125	81.951097480084	142
1	1125	81.951097480084	143
1	1147	83.813511070274	144
1	1147	83.813511070274	145
1	1147	83.813511070274	146
1	1179	85.523273287216	147
1	1179	85.523273287216	148
1	1179	85.523273287216	149
1	1202	86.588550335707	150
1	1202	86.588550335707	151
1	1202	86.588550335707	152
1	1219	88.392315337196	153
1	1219	88.392315337196	154
1	1219	88.392315337196	155
1	1233	89.798507425324	156
1	1233	89.798507425324	157
1	1233	89.798507425324	158
1	1256	92.521201545554	159
1	1256	92.521201545554	160
1	1256	92.521201545554	161
1	1277	93.795335342309	162
1	1277	93.795335342309	163
1	1277	93.795335342309	164
1	1298	94.931000568789	165
1	1298	94.931000568789	166
1	1298	94.931000568789	167
1	1316	96.477622402692	168
1	1316	96.477622402692	169
1	1316	96.477622402692	170
1	1335	97.981932995444	171
1	1335	97.981932995444	172
1	1335	97.981932995444	173
1	1372	99.809313135689	174
1	1372	99.809313135689	175
1	1372	99.809313135689	176
1	1385	102.741886937263	177
1	1385	102.741886937263	178
1	1385	102.741886937263	179
1	1414	104.388458856452	180
1	1414	104.388458856452	181
1	1414	104.388458856452	182
1	1432	106.331637805248	183
1	1432	106.331637805248	184
1	1432	106.331637805248	185
1	1464	109.651734804041	186
1	1464	109.651734804041	187
1	1464	109.651734804041	188
1	1485	111.218413363854	189
1	1485	111.218413363854	190
1	1485	111.218413363854	191
1	1511	112.558169337053	192
1	1511	112.558169337053	193
1	1511	112.558169337053	194
1	1536	114.405326789382	195
1	1536	114.405326789382	196
1	1536	114.405326789382	197
1	1558	116.005495479537	198
1	1558	116.005495479537	199
1	1558	116.005495479537	200
1	1579	117.172630789959	201
1	1579	117.172630789959	202
1	1579	117.172630789959	203
1	1602	118.876761082913	204
1	1602	118.876761082913	205
1	1602	118.876761082913	206
1	1623	120.519153084627	207
1	1623	120.519153084627	208
1	1623	120.519153084627	209
1	1651	122.419087127408	210
1	1651	122.419087127408	211
1	1651	122.419087127408	212
1	1673	124.20661199975	213
1	1673	124.20661199975	214
1	1673	124.20661199975	215
1	1698	125.912579102299	216
1	1698	125.912579102299	217
1	1698	125.912579102299	218
1	1723	127.024762371321	219
1	1723	127.024762371321	220
1	1723	127.024762371321	221
1	1748	128.479378868824	222
1	1748	128.479378868824	223
1	1748	128.479378868824	224
1	1773	129.948540100216	225
1	1773	129.948540100216	226
1	1773	129.948540100216	227
1	1802	132.768944335369	228
1	1802	132.768944335369	229
1	1802	132.768944335369	230
1	1823	134.296699538008	231
1	1823	134.296699538008	232
1	1823	134.296699538008	233
1	1848	135.960780830526	234
1	1848	135.960780830526	235
1	1848	135.960780830526	236
1	1870	137.493852048924	237
1	1870	137.493852048924	238
1	1870	137.493852048924	239
1	1895	138.768881323274	240
1	1895	138.768881323274	241
1	1895	138.768881323274	242
1	1935	140.023887216527	243
1	1935	140.023887216527	244
1	1935	140.023887216527	245
1	1942	141.849828355982	246
1	1942	141.849828355982	247
1	1942	141.849828355982	248
1	1956	142.911604062268	249
1	1956	142.911604062268	250
1	1956	142.911604062268	251
1	1974	143.917512244535	252
1	1974	143.917512244535	253
1	1974	143.917512244535	254
1	1993	145.895321510102	255
1	1993	145.895321510102	256
1	1993	145.895321510102	257
1	2025	147.428966040138	258
1	2025	147.428966040138	259
1	2025	147.428966040138	260
1	2051	148.965632155994	261
1	2051	148.965632155994	262
1	2051	148.965632155994	263
1	2066	150.007399503836	264
1	2066	150.007399503836	265
1	2066	150.007399503836	266
1	2087	151.562544774856	267
1	2087	151.562544774856	268
1	2087	151.562544774856	269
1	2112	153.291806731637	270
1	2112	153.291806731637	271
1	2112	153.291806731637	272
1	2133	154.431472157128	273
1	2133	154.431472157128	274
1	2133	154.431472157128	275
1	2140	155.782879666339	276
1	2140	155.782879666339	277
1	2140	155.782879666339	278
1	2165	156.8763213752	279
1	2165	156.8763213752	280
1	2165	156.8763213752	281
1	2190	158.582553757646	282
1	2190	158.582553757646	283
1	2190	158.582553757646	284
1	2219	160.19029668235	285
1	2219	160.19029668235	286
1	2219	160.19029668235	287
1	2233	161.579949058437	288
1	2233	161.579949058437	289
1	2233	161.579949058437	290
1	2265	163.042045017163	291
1	2265	163.042045017163	292
1	2265	163.042045017163	293
1	2283	164.595326224341	294
1	2283	164.595326224341	295
1	2283	164.595326224341	296
1	2305	166.315071124216	297
1	2305	166.315071124216	298
1	2305	166.315071124216	299
1	2330	168.27008075518	300
1	2330	168.27008075518	301
1	2330	168.27008075518	302
1	2359	169.590413049308	303
1	2359	169.590413049308	304
1	2359	169.590413049308	305
1	2380	171.342346945967	306
1	2380	171.342346945967	307
1	2380	171.342346945967	308
1	2398	172.427224277025	309
1	2398	172.427224277025	310
1	2398	172.427224277025	311
1	2430	173.529132858099	312
1	2430	173.529132858099	313
1	2430	173.529132858099	314
1	2444	174.776344158367	315
1	2444	174.776344158367	316
1	2444	174.776344158367	317
1	2462	176.42750908665	318
1	2462	176.42750908665	319
1	2462	176.42750908665	320
1	2494	177.49630164631	321
1	2494	177.49630164631	322
1	2494	177.49630164631	323
1	2509	178.563444041352	324
1	2509	178.563444041352	325
1	2509	178.563444041352	326
1	2532	180.143048362153	327
1	2532	180.143048362153	328
1	2532	180.143048362153	329
1	2557	181.273062182393	330
1	2557	181.273062182393	331
1	2557	181.273062182393	332
1	2585	182.618454128519	333
1	2585	182.618454128519	334
1	2585	182.618454128519	335
1	2601	183.883475332699	336
1	2601	183.883475332699	337
1	2601	183.883475332699	338
1	2625	184.957836813426	339
1	2625	184.957836813426	340
1	2625	184.957836813426	341
1	2650	185.991252375183	342
1	2650	185.991252375183	343
1	2650	185.991252375183	344
1	2671	187.271967772875	345
1	2671	187.271967772875	346
1	2671	187.271967772875	347
1	2695	190.670514875801	348
1	2695	190.670514875801	349
1	2695	190.670514875801	350
1	2717	192.065180107353	351
1	2717	192.065180107353	352
1	2717	192.065180107353	353
1	2740	193.253996492127	354
1	2740	193.253996492127	355
1	2740	193.253996492127	356
1	2760	195.209320384325	357
1	2760	195.209320384325	358
1	2760	195.209320384325	359
1	2778	196.714211083798	360
1	2778	196.714211083798	361
1	2778	196.714211083798	362
1	2803	198.327021068415	363
1	2803	198.327021068415	364
1	2803	198.327021068415	365
1	2818	199.827805700634	366
1	2818	199.827805700634	367
1	2818	199.827805700634	368
1	2843	200.968669619618	369
1	2843	200.968669619618	370
1	2843	200.968669619618	371
1	2868	202.801099183681	372
1	2868	202.801099183681	373
1	2868	202.801099183681	374
1	2890	204.394083080411	375
1	2890	204.394083080411	376
1	2890	204.394083080411	377
1	2916	206.052887519947	378
1	2916	206.052887519947	379
1	2916	206.052887519947	380
1	2937	207.199078976729	381
1	2937	207.199078976729	382
1	2937	207.199078976729	383
1	2966	209.041056105518	384
1	2966	209.041056105518	385
1	2966	209.041056105518	386
1	2985	210.722996875037	387
1	2985	210.722996875037	388
1	2985	210.722996875037	389
1	3010	212.175475942855	390
1	3010	212.175475942855	391
1	3010	212.175475942855	392
1	3037	213.30477574478	393
1	3037	213.30477574478	394
1	3037	213.30477574478	395
1	3056	215.089101279681	396
1	3056	215.089101279681	397
1	3056	215.089101279681	398
1	3070	216.291922761935	399
1	3070	216.291922761935	400
1	3070	216.291922761935	401
1	3109	219.892884869236	402
1	3109	219.892884869236	403
1	3109	219.892884869236	404
1	3124	221.412981628423	405
1	3124	221.412981628423	406
1	3124	221.412981628423	407
1	3146	222.966160303424	408
1	3146	222.966160303424	409
1	3146	222.966160303424	410
1	3168	224.182843996691	411
1	3168	224.182843996691	412
1	3168	224.182843996691	413
1	3192	225.391442976653	414
1	3192	225.391442976653	415
1	3192	225.391442976653	416
1	3217	226.420192481278	417
1	3217	226.420192481278	418
1	3217	226.420192481278	419
1	3247	227.737763593929	420
1	3247	227.737763593929	421
1	3247	227.737763593929	422
1	3264	228.76937424149	423
1	3264	228.76937424149	424
1	3264	228.76937424149	425
1	3286	230.463815203307	426
1	3286	230.463815203307	427
1	3286	230.463815203307	428
1	3311	232.382900803534	429
1	3311	232.382900803534	430
1	3311	232.382900803534	431
1	3333	233.858286984332	432
1	3333	233.858286984332	433
1	3333	233.858286984332	434
1	3359	235.382489306698	435
1	3359	235.382489306698	436
1	3359	235.382489306698	437
1	3379	236.548251332167	438
1	3379	236.548251332167	439
1	3379	236.548251332167	440
1	3401	237.878141506316	441
1	3401	237.878141506316	442
1	3401	237.878141506316	443
1	3426	239.491445046686	444
1	3426	239.491445046686	445
1	3426	239.491445046686	446
2	8	0.218066095948	0
2	8	0.218066095948	1
2	8	0.218066095948	2
2	34	2.121033415895	3
2	34	2.121033415895	4
2	34	2.121033415895	5
2	61	4.164942923876	6
2	61	4.164942923876	7
2	61	4.164942923876	8
2	87	5.58241661177	9
2	87	5.58241661177	10
2	87	5.58241661177	11
2	104	7.071121824744	12
2	104	7.071121824744	13
2	104	7.071121824744	14
2	132	8.337448831884	15
2	132	8.337448831884	16
2	132	8.337448831884	17
2	158	9.768730742679	18
2	158	9.768730742679	19
2	158	9.768730742679	20
2	176	11.267953791694	21
2	176	11.267953791694	22
2	176	11.267953791694	23
2	199	12.374156661889	24
2	199	12.374156661889	25
2	199	12.374156661889	26
2	217	13.562908096204	27
2	217	13.562908096204	28
2	217	13.562908096204	29
2	238	14.538558569876	30
2	238	14.538558569876	31
2	238	14.538558569876	32
2	266	16.340402760916	33
2	266	16.340402760916	34
2	266	16.340402760916	35
2	291	17.361203683879	36
2	291	17.361203683879	37
2	291	17.361203683879	38
2	312	19.308578845862	39
2	312	19.308578845862	40
2	312	19.308578845862	41
2	334	20.449875507715	42
2	334	20.449875507715	43
2	334	20.449875507715	44
2	373	25.359213743055	45
2	373	25.359213743055	46
2	373	25.359213743055	47
2	404	26.58411137269	48
2	404	26.58411137269	49
2	404	26.58411137269	50
2	422	28.289428021773	51
2	422	28.289428021773	52
2	422	28.289428021773	53
2	447	29.449839742861	54
2	447	29.449839742861	55
2	447	29.449839742861	56
2	468	30.521113427521	57
2	468	30.521113427521	58
2	468	30.521113427521	59
2	498	31.971112979668	60
2	498	31.971112979668	61
2	498	31.971112979668	62
2	512	33.34942178007	63
2	512	33.34942178007	64
2	512	33.34942178007	65
2	549	36.236108324225	66
2	549	36.236108324225	67
2	549	36.236108324225	68
2	584	38.052763403065	69
2	584	38.052763403065	70
2	584	38.052763403065	71
2	605	39.517607785642	72
2	605	39.517607785642	73
2	605	39.517607785642	74
2	630	40.669833042464	75
2	630	40.669833042464	76
2	630	40.669833042464	77
2	659	42.924783596077	78
2	659	42.924783596077	79
2	659	42.924783596077	80
2	677	44.435509952828	81
2	677	44.435509952828	82
2	677	44.435509952828	83
2	699	46.428041184061	84
2	699	46.428041184061	85
2	699	46.428041184061	86
2	728	48.256582977526	87
2	728	48.256582977526	88
2	728	48.256582977526	89
2	749	49.879630414357	90
2	749	49.879630414357	91
2	749	49.879630414357	92
2	774	51.532273416372	93
2	774	51.532273416372	94
2	774	51.532273416372	95
2	800	53.440950729846	96
2	800	53.440950729846	97
2	800	53.440950729846	98
2	814	54.9661926219	99
2	814	54.9661926219	100
2	814	54.9661926219	101
2	843	57.885135450377	102
2	843	57.885135450377	103
2	843	57.885135450377	104
2	873	62.242566540475	105
2	873	62.242566540475	106
2	873	62.242566540475	107
2	894	63.33787692363	108
2	894	63.33787692363	109
2	894	63.33787692363	110
2	915	64.440706008862	111
2	915	64.440706008862	112
2	915	64.440706008862	113
2	942	65.697125470588	114
2	942	65.697125470588	115
2	942	65.697125470588	116
2	961	67.684222164906	117
2	961	67.684222164906	118
2	961	67.684222164906	119
2	987	69.41909560936	120
2	987	69.41909560936	121
2	987	69.41909560936	122
2	1013	71.029945379899	123
2	1013	71.029945379899	124
2	1013	71.029945379899	125
2	1041	72.84027391906	126
2	1041	72.84027391906	127
2	1041	72.84027391906	128
2	1062	74.627910375879	129
2	1062	74.627910375879	130
2	1062	74.627910375879	131
2	1098	78.410371566344	132
2	1098	78.410371566344	133
2	1098	78.410371566344	134
2	1137	82.043096236982	135
2	1137	82.043096236982	136
2	1137	82.043096236982	137
2	1153	83.831871111824	138
2	1153	83.831871111824	139
2	1153	83.831871111824	140
2	1183	85.571181706957	141
2	1183	85.571181706957	142
2	1183	85.571181706957	143
2	1209	86.606026805214	144
2	1209	86.606026805214	145
2	1209	86.606026805214	146
2	1238	89.81069729873	147
2	1238	89.81069729873	148
2	1238	89.81069729873	149
2	1263	92.53861234138	150
2	1263	92.53861234138	151
2	1263	92.53861234138	152
2	1281	93.805501754855	153
2	1281	93.805501754855	154
2	1281	93.805501754855	155
2	1321	96.491146658503	156
2	1321	96.491146658503	157
2	1321	96.491146658503	158
2	1339	97.993943691688	159
2	1339	97.993943691688	160
2	1339	97.993943691688	161
2	1368	99.796092968786	162
2	1368	99.796092968786	163
2	1368	99.796092968786	164
2	1396	102.766886887558	165
2	1396	102.766886887558	166
2	1396	102.766886887558	167
2	1422	104.40609978168	168
2	1422	104.40609978168	169
2	1422	104.40609978168	170
2	1447	106.395679282137	171
2	1447	106.395679282137	172
2	1447	106.395679282137	173
2	1470	109.663004285328	174
2	1470	109.663004285328	175
2	1470	109.663004285328	176
2	1489	111.228804245041	177
2	1489	111.228804245041	178
2	1489	111.228804245041	179
2	1518	112.569392920471	180
2	1518	112.569392920471	181
2	1518	112.569392920471	182
2	1550	114.44701321131	183
2	1550	114.44701321131	184
2	1550	114.44701321131	185
2	1565	116.016545541826	186
2	1565	116.016545541826	187
2	1565	116.016545541826	188
2	1583	117.191608682874	189
2	1583	117.191608682874	190
2	1583	117.191608682874	191
2	1608	118.887234420387	192
2	1608	118.887234420387	193
2	1608	118.887234420387	194
2	1627	120.537728064627	195
2	1627	120.537728064627	196
2	1627	120.537728064627	197
2	1659	122.434035989365	198
2	1659	122.434035989365	199
2	1659	122.434035989365	200
2	1677	124.218413150732	201
2	1677	124.218413150732	202
2	1677	124.218413150732	203
2	1702	125.924266915594	204
2	1702	125.924266915594	205
2	1702	125.924266915594	206
2	1731	127.047975158302	207
2	1731	127.047975158302	208
2	1731	127.047975158302	209
2	1753	128.492304751383	210
2	1753	128.492304751383	211
2	1753	128.492304751383	212
2	1785	129.973250698687	213
2	1785	129.973250698687	214
2	1785	129.973250698687	215
2	1812	132.79631943174	216
2	1812	132.79631943174	217
2	1812	132.79631943174	218
2	1830	134.312110315475	219
2	1830	134.312110315475	220
2	1830	134.312110315475	221
2	1853	135.971820583332	222
2	1853	135.971820583332	223
2	1853	135.971820583332	224
2	1874	137.50432438115	225
2	1874	137.50432438115	226
2	1874	137.50432438115	227
2	1902	138.789119842993	228
2	1902	138.789119842993	229
2	1902	138.789119842993	230
2	1931	140.01321068219	231
2	1931	140.01321068219	232
2	1931	140.01321068219	233
2	1960	142.922074809592	234
2	1960	142.922074809592	235
2	1960	142.922074809592	236
2	1978	143.928091096957	237
2	1978	143.928091096957	238
2	1978	143.928091096957	239
2	1998	145.910757266911	240
2	1998	145.910757266911	241
2	1998	145.910757266911	242
2	2029	147.44028361854	243
2	2029	147.44028361854	244
2	2029	147.44028361854	245
2	2058	148.97714430627	246
2	2058	148.97714430627	247
2	2058	148.97714430627	248
2	2076	150.024679795997	249
2	2076	150.024679795997	250
2	2076	150.024679795997	251
2	2092	151.575903899105	252
2	2092	151.575903899105	253
2	2092	151.575903899105	254
2	2146	155.794929416027	255
2	2146	155.794929416027	256
2	2146	155.794929416027	257
2	2198	158.60374710108	258
2	2198	158.60374710108	259
2	2198	158.60374710108	260
2	2220	160.193367223493	261
2	2220	160.193367223493	262
2	2220	160.193367223493	263
2	2237	161.590657053326	264
2	2237	161.590657053326	265
2	2237	161.590657053326	266
2	2269	163.064755278192	267
2	2269	163.064755278192	268
2	2269	163.064755278192	269
2	2288	164.606471384616	270
2	2288	164.606471384616	271
2	2288	164.606471384616	272
2	2310	166.330066606483	273
2	2310	166.330066606483	274
2	2310	166.330066606483	275
2	2334	168.280501696674	276
2	2334	168.280501696674	277
2	2334	168.280501696674	278
2	2366	169.617872960063	279
2	2366	169.617872960063	280
2	2366	169.617872960063	281
2	2384	171.352414561581	282
2	2384	171.352414561581	283
2	2384	171.352414561581	284
2	2405	172.44647465101	285
2	2405	172.44647465101	286
2	2405	172.44647465101	287
2	2434	173.571760158762	288
2	2434	173.571760158762	289
2	2434	173.571760158762	290
2	2449	174.789386124603	291
2	2449	174.789386124603	292
2	2449	174.789386124603	293
2	2477	176.470788730237	294
2	2477	176.470788730237	295
2	2477	176.470788730237	296
2	2498	177.5066160982	297
2	2498	177.5066160982	298
2	2498	177.5066160982	299
2	2524	178.612064643567	300
2	2524	178.612064643567	301
2	2524	178.612064643567	302
2	2538	180.157362093218	303
2	2538	180.157362093218	304
2	2538	180.157362093218	305
2	2571	181.329115805032	306
2	2571	181.329115805032	307
2	2571	181.329115805032	308
2	2593	182.640841008659	309
2	2593	182.640841008659	310
2	2593	182.640841008659	311
2	2608	183.895349661996	312
2	2608	183.895349661996	313
2	2608	183.895349661996	314
2	2633	184.980720789523	315
2	2633	184.980720789523	316
2	2633	184.980720789523	317
2	2658	186.01378192513	318
2	2658	186.01378192513	319
2	2658	186.01378192513	320
2	2677	187.283229774967	321
2	2677	187.283229774967	322
2	2677	187.283229774967	323
2	2699	190.683921524286	324
2	2699	190.683921524286	325
2	2699	190.683921524286	326
2	2722	192.076907247296	327
2	2722	192.076907247296	328
2	2722	192.076907247296	329
2	2764	195.245692860095	330
2	2764	195.245692860095	331
2	2764	195.245692860095	332
2	2783	196.731590186207	333
2	2783	196.731590186207	334
2	2783	196.731590186207	335
2	2807	198.339344316878	336
2	2807	198.339344316878	337
2	2807	198.339344316878	338
2	2823	199.841902160971	339
2	2823	199.841902160971	340
2	2823	199.841902160971	341
2	2851	200.986394304475	342
2	2851	200.986394304475	343
2	2851	200.986394304475	344
2	2873	202.811130325366	345
2	2873	202.811130325366	346
2	2873	202.811130325366	347
2	2895	204.407248122515	348
2	2895	204.407248122515	349
2	2895	204.407248122515	350
2	2923	206.068564782468	351
2	2923	206.068564782468	352
2	2923	206.068564782468	353
2	2948	207.236235017665	354
2	2948	207.236235017665	355
2	2948	207.236235017665	356
2	2971	209.059994467769	357
2	2971	209.059994467769	358
2	2971	209.059994467769	359
2	2996	210.766987272858	360
2	2996	210.766987272858	361
2	2996	210.766987272858	362
2	3017	212.187881088631	363
2	3017	212.187881088631	364
2	3017	212.187881088631	365
2	3045	213.330922504301	366
2	3045	213.330922504301	367
2	3045	213.330922504301	368
2	3060	215.100160047131	369
2	3060	215.100160047131	370
2	3060	215.100160047131	371
2	3075	216.302884137624	372
2	3075	216.302884137624	373
2	3075	216.302884137624	374
2	3117	219.904976036621	375
2	3117	219.904976036621	376
2	3117	219.904976036621	377
2	3132	221.439730330507	378
2	3132	221.439730330507	379
2	3132	221.439730330507	380
2	3153	222.978033374773	381
2	3153	222.978033374773	382
2	3153	222.978033374773	383
2	3182	224.240393497654	384
2	3182	224.240393497654	385
2	3182	224.240393497654	386
2	3199	225.406567258566	387
2	3199	225.406567258566	388
2	3199	225.406567258566	389
2	3223	226.440276817488	390
2	3223	226.440276817488	391
2	3223	226.440276817488	392
2	3254	227.774137454617	393
2	3254	227.774137454617	394
2	3254	227.774137454617	395
2	3269	228.794886071977	396
2	3269	228.794886071977	397
2	3269	228.794886071977	398
2	3294	230.47726093295	399
2	3294	230.47726093295	400
2	3294	230.47726093295	401
2	3322	232.419998986204	402
2	3322	232.419998986204	403
2	3322	232.419998986204	404
2	3341	233.875499052506	405
2	3341	233.875499052506	406
2	3341	233.875499052506	407
2	3369	235.407807495539	408
2	3369	235.407807495539	409
2	3369	235.407807495539	410
2	3384	236.56841178123	411
2	3384	236.56841178123	412
2	3384	236.56841178123	413
2	3406	237.888951990512	414
2	3406	237.888951990512	415
2	3406	237.888951990512	416
2	3431	239.505801256042	417
2	3431	239.505801256042	418
2	3431	239.505801256042	419
3	9	0.223088800394	0
3	9	0.223088800394	1
3	30	2.113453601012	2
3	30	2.113453601012	3
3	50	4.088536856969	4
3	50	4.088536856969	5
3	75	5.537906670783	6
3	75	5.537906670783	7
3	110	7.085019275989	8
3	110	7.085019275989	9
3	126	8.319910254784	10
3	126	8.319910254784	11
3	147	9.716909987819	12
3	147	9.716909987819	13
3	165	11.238208804017	14
3	165	11.238208804017	15
3	198	12.372065165377	16
3	198	12.372065165377	17
3	221	13.57039813095	18
3	221	13.57039813095	19
3	246	14.54992051565	20
3	246	14.54992051565	21
3	255	16.315900537628	22
3	255	16.315900537628	23
3	280	17.336797317159	24
3	280	17.336797317159	25
3	306	19.28536551334	26
3	306	19.28536551334	27
3	327	20.407661753251	28
3	327	20.407661753251	29
3	354	24.047635759114	30
3	354	24.047635759114	31
3	372	25.355037520057	32
3	372	25.355037520057	33
3	398	26.556132117188	34
3	398	26.556132117188	35
3	415	28.27453184065	36
3	415	28.27453184065	37
3	436	29.397370109392	38
3	436	29.397370109392	39
3	461	30.494286315732	40
3	461	30.494286315732	41
3	484	31.932810167426	42
3	484	31.932810167426	43
3	524	33.391058424403	44
3	524	33.391058424403	45
3	530	34.631897728402	46
3	530	34.631897728402	47
3	553	36.244569035697	48
3	553	36.244569035697	49
3	570	38.012596136463	50
3	570	38.012596136463	51
3	594	39.434716695859	52
3	594	39.434716695859	53
3	619	40.629245920036	54
3	619	40.629245920036	55
3	647	42.88340264083	56
3	647	42.88340264083	57
3	673	44.425706907723	58
3	673	44.425706907723	59
3	710	46.453082025401	60
3	710	46.453082025401	61
3	716	48.210748411466	62
3	716	48.210748411466	63
3	745	49.869045540994	64
3	745	49.869045540994	65
3	764	51.511482124988	66
3	764	51.511482124988	67
3	788	53.398723636709	68
3	788	53.398723636709	69
3	822	54.982511703038	70
3	822	54.982511703038	71
3	835	57.853596496782	72
3	835	57.853596496782	73
3	866	62.225260163444	74
3	866	62.225260163444	75
3	892	63.336361564454	76
3	892	63.336361564454	77
3	911	64.435474826812	78
3	911	64.435474826812	79
3	935	65.682824318526	80
3	935	65.682824318526	81
3	973	67.732472335902	82
3	973	67.732472335902	83
3	979	69.378676914735	84
3	979	69.378676914735	85
3	1001	71.006689456179	86
3	1001	71.006689456179	87
3	1034	72.801024486174	88
3	1034	72.801024486174	89
3	1051	74.597605196578	90
3	1051	74.597605196578	91
3	1087	78.367966030234	92
3	1087	78.367966030234	93
3	1112	80.337265423536	94
3	1112	80.337265423536	95
3	1122	81.919456477109	96
3	1122	81.919456477109	97
3	1152	83.825066113329	98
3	1152	83.825066113329	99
3	1172	85.487538806516	100
3	1172	85.487538806516	101
3	1194	86.546504672863	102
3	1194	86.546504672863	103
3	1227	88.444251384145	104
3	1227	88.444251384145	105
3	1255	92.519483599663	106
3	1255	92.519483599663	107
3	1289	93.836572405271	108
3	1289	93.836572405271	109
3	1295	94.919112149742	110
3	1295	94.919112149742	111
3	1313	96.464165486482	112
3	1313	96.464165486482	113
3	1348	98.018094352142	114
3	1348	98.018094352142	115
3	1357	99.732670041187	116
3	1357	99.732670041187	117
3	1386	102.746434235169	118
3	1386	102.746434235169	119
3	1407	104.362152465564	120
3	1407	104.362152465564	121
3	1433	106.336486606879	122
3	1433	106.336486606879	123
3	1457	108.128155159692	124
3	1457	108.128155159692	125
3	1463	109.651725982497	126
3	1463	109.651725982497	127
3	1498	111.254448876296	128
3	1498	111.254448876296	129
3	1510	112.549283312754	130
3	1510	112.549283312754	131
3	1535	114.397698951306	132
3	1535	114.397698951306	133
3	1557	116.000631687426	134
3	1557	116.000631687426	135
3	1595	117.254950568881	136
3	1595	117.254950568881	137
3	1601	118.871464974499	138
3	1601	118.871464974499	139
3	1638	120.571435302186	140
3	1638	120.571435302186	141
3	1648	122.404323425369	142
3	1648	122.404323425369	143
3	1678	124.224429311597	144
3	1678	124.224429311597	145
3	1710	125.939213251424	146
3	1710	125.939213251424	147
3	1727	127.03708625137	148
3	1727	127.03708625137	149
3	1749	128.486889526146	150
3	1749	128.486889526146	151
3	1774	129.956863631577	152
3	1774	129.956863631577	153
3	1795	131.31590227859	154
3	1795	131.31590227859	155
3	1801	132.763583336324	156
3	1801	132.763583336324	157
3	1824	134.297110018424	158
3	1824	134.297110018424	159
3	1849	135.964446210439	160
3	1849	135.964446210439	161
3	1882	137.522500342812	162
3	1882	137.522500342812	163
3	1896	138.776114252244	164
3	1896	138.776114252244	165
3	1920	139.945970617684	166
3	1920	139.945970617684	167
3	1947	141.8613423855	168
3	1947	141.8613423855	169
3	1968	142.958511665902	170
3	1968	142.958511665902	171
3	2009	145.948318860565	172
3	2009	145.948318860565	173
3	2018	147.400318110793	174
3	2018	147.400318110793	175
3	2043	148.920251631556	176
3	2043	148.920251631556	177
3	2065	150.000887219983	178
3	2065	150.000887219983	179
3	2091	151.574011143858	180
3	2091	151.574011143858	181
3	2120	153.340400776035	182
3	2120	153.340400776035	183
3	2126	154.354981279727	184
3	2126	154.354981279727	185
3	2141	155.787387950715	186
3	2141	155.787387950715	187
3	2166	156.879924150841	188
3	2166	156.879924150841	189
3	2183	158.557154624127	190
3	2183	158.557154624127	191
3	2208	160.147766016549	192
3	2208	160.147766016549	193
3	2246	161.607153933694	194
3	2246	161.607153933694	195
3	2258	163.000329384667	196
3	2258	163.000329384667	197
3	2284	164.597256456544	198
3	2284	164.597256456544	199
3	2309	166.329123900965	200
3	2309	166.329123900965	201
3	2346	168.30997720552	202
3	2346	168.30997720552	203
3	2355	169.549776270614	204
3	2355	169.549776270614	205
3	2373	171.289850955604	206
3	2373	171.289850955604	207
3	2399	172.434538350683	208
3	2399	172.434538350683	209
3	2423	173.467272165557	210
3	2423	173.467272165557	211
3	2445	174.78531349329	212
3	2445	174.78531349329	213
3	2470	176.451850309685	214
3	2470	176.451850309685	215
3	2487	177.474488039681	216
3	2487	177.474488039681	217
3	2510	178.566173548827	218
3	2510	178.566173548827	219
3	2531	180.136034915627	220
3	2531	180.136034915627	221
3	2556	181.268174672499	222
3	2556	181.268174672499	223
3	2578	182.595461019144	224
3	2578	182.595461019144	225
3	2600	183.873844219703	226
3	2600	183.873844219703	227
3	2626	184.960265994642	228
3	2626	184.960265994642	229
3	2659	186.018510672468	230
3	2659	186.018510672468	231
3	2672	187.274363725223	232
3	2672	187.274363725223	233
3	2711	190.713178933571	234
3	2711	190.713178933571	235
3	2718	192.067016917888	236
3	2718	192.067016917888	237
3	2739	193.251464606566	238
3	2739	193.251464606566	239
3	2753	195.186478039225	240
3	2753	195.186478039225	241
3	2796	198.265940573308	242
3	2796	198.265940573308	243
3	2830	199.858451080784	244
3	2830	199.858451080784	245
3	2844	200.970805393301	246
3	2844	200.970805393301	247
3	2869	202.801534292537	248
3	2869	202.801534292537	249
3	2894	204.405618453322	250
3	2894	204.405618453322	251
3	2915	206.047428056493	252
3	2915	206.047428056493	253
3	2938	207.200339766217	254
3	2938	207.200339766217	255
3	2959	209.010266061334	256
3	2959	209.010266061334	257
3	2984	210.722814870556	258
3	2984	210.722814870556	259
3	3009	212.168359601356	260
3	3009	212.168359601356	261
3	3034	213.284815736584	262
3	3034	213.284815736584	263
3	3082	216.314912094328	264
3	3082	216.314912094328	265
3	3092	217.991007609316	266
3	3092	217.991007609316	267
3	3102	219.86732824735	268
3	3102	219.86732824735	269
3	3133	221.443618298275	270
3	3133	221.443618298275	271
3	3145	222.958861668561	272
3	3145	222.958861668561	273
3	3167	224.175940619178	274
3	3167	224.175940619178	275
3	3193	225.396307406554	276
3	3193	225.396307406554	277
3	3222	226.434219748386	278
3	3222	226.434219748386	279
3	3239	227.709435662119	280
3	3239	227.709435662119	281
3	3261	228.752377263319	282
3	3261	228.752377263319	283
3	3287	230.466650390332	284
3	3287	230.466650390332	285
3	3312	232.388683966349	286
3	3312	232.388683966349	287
3	3334	233.858376148794	288
3	3334	233.858376148794	289
3	3358	235.37468720185	290
3	3358	235.37468720185	291
3	3402	237.887544276796	292
3	3402	237.887544276796	293
3	3439	239.529950260728	294
3	3439	239.529950260728	295
4	10	0.227595799025	0
4	10	0.227595799025	1
4	10	0.227595799025	2
4	53	4.10047102056	3
4	53	4.10047102056	4
4	53	4.10047102056	5
4	78	5.558399325384	6
4	78	5.558399325384	7
4	78	5.558399325384	8
4	105	7.07914562405	9
4	105	7.07914562405	10
4	105	7.07914562405	11
4	133	8.338664614241	12
4	133	8.338664614241	13
4	133	8.338664614241	14
4	150	9.734676900534	15
4	150	9.734676900534	16
4	150	9.734676900534	17
4	169	11.24958919463	18
4	169	11.24958919463	19
4	169	11.24958919463	20
4	194	12.356324559168	21
4	194	12.356324559168	22
4	194	12.356324559168	23
4	216	13.556129435308	24
4	216	13.556129435308	25
4	216	13.556129435308	26
4	237	14.53733031823	27
4	237	14.53733031823	28
4	237	14.53733031823	29
4	259	16.326069127415	30
4	259	16.326069127415	31
4	259	16.326069127415	32
4	287	17.351169128036	33
4	287	17.351169128036	34
4	287	17.351169128036	35
4	313	19.310861114915	36
4	313	19.310861114915	37
4	313	19.310861114915	38
4	333	20.440498103027	39
4	333	20.440498103027	40
4	333	20.440498103027	41
4	361	24.083520449113	42
4	361	24.083520449113	43
4	361	24.083520449113	44
4	382	25.392124899726	45
4	382	25.392124899726	46
4	382	25.392124899726	47
4	397	26.553665971086	48
4	397	26.553665971086	49
4	397	26.553665971086	50
4	423	28.296846818089	51
4	423	28.296846818089	52
4	423	28.296846818089	53
4	443	29.414522117693	54
4	443	29.414522117693	55
4	443	29.414522117693	56
4	469	30.522357557014	57
4	469	30.522357557014	58
4	469	30.522357557014	59
4	490	31.944515910266	60
4	490	31.944515910266	61
4	490	31.944515910266	62
4	517	33.361026620199	63
4	517	33.361026620199	64
4	517	33.361026620199	65
4	534	34.64411736652	66
4	534	34.64411736652	67
4	534	34.64411736652	68
4	548	36.232021102087	69
4	548	36.232021102087	70
4	548	36.232021102087	71
4	574	38.021577242661	72
4	574	38.021577242661	73
4	574	38.021577242661	74
4	597	39.484058123095	75
4	597	39.484058123095	76
4	597	39.484058123095	77
4	623	40.641650254916	78
4	623	40.641650254916	79
4	623	40.641650254916	80
4	650	42.894059097492	81
4	650	42.894059097492	82
4	650	42.894059097492	83
4	683	44.449316676343	84
4	683	44.449316676343	85
4	683	44.449316676343	86
4	698	46.418207372955	87
4	698	46.418207372955	88
4	698	46.418207372955	89
4	719	48.221190861657	90
4	719	48.221190861657	91
4	719	48.221190861657	92
4	746	49.872457713498	93
4	746	49.872457713498	94
4	746	49.872457713498	95
4	770	51.521635197363	96
4	770	51.521635197363	97
4	770	51.521635197363	98
4	795	53.424904089693	99
4	795	53.424904089693	100
4	795	53.424904089693	101
4	815	54.968448509942	102
4	815	54.968448509942	103
4	815	54.968448509942	104
4	842	57.880085456889	105
4	842	57.880085456889	106
4	842	57.880085456889	107
4	877	62.253801956984	108
4	877	62.253801956984	109
4	877	62.253801956984	110
4	893	63.336409625049	111
4	893	63.336409625049	112
4	893	63.336409625049	113
4	918	64.446033489906	114
4	918	64.446033489906	115
4	918	64.446033489906	116
4	943	65.698236649509	117
4	943	65.698236649509	118
4	943	65.698236649509	119
4	965	67.699681346516	120
4	965	67.699681346516	121
4	965	67.699681346516	122
4	986	69.415502362248	123
4	986	69.415502362248	124
4	986	69.415502362248	125
4	1004	71.017099575289	126
4	1004	71.017099575289	127
4	1004	71.017099575289	128
4	1030	72.790376414608	129
4	1030	72.790376414608	130
4	1030	72.790376414608	131
4	1058	74.613559597614	132
4	1058	74.613559597614	133
4	1058	74.613559597614	134
4	1080	76.546398493547	135
4	1080	76.546398493547	136
4	1080	76.546398493547	137
4	1090	78.382087165935	138
4	1090	78.382087165935	139
4	1090	78.382087165935	140
4	1115	80.351432669212	141
4	1115	80.351432669212	142
4	1115	80.351432669212	143
4	1129	82.007840342932	144
4	1129	82.007840342932	145
4	1129	82.007840342932	146
4	1151	83.823725078496	147
4	1151	83.823725078496	148
4	1151	83.823725078496	149
4	1175	85.511490698225	150
4	1175	85.511490698225	151
4	1175	85.511490698225	152
4	1197	86.563077849358	153
4	1197	86.563077849358	154
4	1197	86.563077849358	155
4	1223	88.40321790441	156
4	1223	88.40321790441	157
4	1223	88.40321790441	158
4	1237	89.809313357991	159
4	1237	89.809313357991	160
4	1237	89.809313357991	161
4	1259	92.531063148672	162
4	1259	92.531063148672	163
4	1259	92.531063148672	164
4	1282	93.815429485295	165
4	1282	93.815429485295	166
4	1282	93.815429485295	167
4	1299	94.936585995851	168
4	1299	94.936585995851	169
4	1299	94.936585995851	170
4	1320	96.488034930471	171
4	1320	96.488034930471	172
4	1320	96.488034930471	173
4	1343	98.007921216752	174
4	1343	98.007921216752	175
4	1343	98.007921216752	176
4	1360	99.754891794959	177
4	1360	99.754891794959	178
4	1360	99.754891794959	179
4	1390	102.753429806436	180
4	1390	102.753429806436	181
4	1390	102.753429806436	182
4	1410	104.375656444798	183
4	1410	104.375656444798	184
4	1410	104.375656444798	185
4	1439	106.353423439168	186
4	1439	106.353423439168	187
4	1439	106.353423439168	188
4	1471	109.665050197532	189
4	1471	109.665050197532	190
4	1471	109.665050197532	191
4	1490	111.234189434794	192
4	1490	111.234189434794	193
4	1490	111.234189434794	194
4	1514	112.56810422538	195
4	1514	112.56810422538	196
4	1514	112.56810422538	197
4	1539	114.410373568533	198
4	1539	114.410373568533	199
4	1539	114.410373568533	200
4	1561	116.0108776667	201
4	1561	116.0108776667	202
4	1561	116.0108776667	203
4	1591	117.218277441288	204
4	1591	117.218277441288	205
4	1591	117.218277441288	206
4	1616	118.926340473738	207
4	1616	118.926340473738	208
4	1616	118.926340473738	209
4	1632	120.559898242254	210
4	1632	120.559898242254	211
4	1632	120.559898242254	212
4	1652	122.422016216868	213
4	1652	122.422016216868	214
4	1652	122.422016216868	215
4	1682	124.228810801172	216
4	1682	124.228810801172	217
4	1682	124.228810801172	218
4	1703	125.926571872796	219
4	1703	125.926571872796	220
4	1703	125.926571872796	221
4	1728	127.041297828461	222
4	1728	127.041297828461	223
4	1728	127.041297828461	224
4	1754	128.496865500581	225
4	1754	128.496865500581	226
4	1754	128.496865500581	227
4	1778	129.960914732613	228
4	1778	129.960914732613	229
4	1778	129.960914732613	230
4	1808	132.786105738606	231
4	1808	132.786105738606	232
4	1808	132.786105738606	233
4	1835	134.331507948541	234
4	1835	134.331507948541	235
4	1835	134.331507948541	236
4	1859	135.983446647211	237
4	1859	135.983446647211	238
4	1859	135.983446647211	239
4	1875	137.506698504783	240
4	1875	137.506698504783	241
4	1875	137.506698504783	242
4	1903	138.796827228775	243
4	1903	138.796827228775	244
4	1903	138.796827228775	245
4	1923	139.9681450649	246
4	1923	139.9681450649	247
4	1923	139.9681450649	248
4	1946	141.860488704924	249
4	1946	141.860488704924	250
4	1946	141.860488704924	251
4	1961	142.922777322359	252
4	1961	142.922777322359	253
4	1961	142.922777322359	254
4	1982	143.939715908686	255
4	1982	143.939715908686	256
4	1982	143.939715908686	257
4	1997	145.907744067255	258
4	1997	145.907744067255	259
4	1997	145.907744067255	260
4	2021	147.4169710864	261
4	2021	147.4169710864	262
4	2021	147.4169710864	263
4	2046	148.94971826097	264
4	2046	148.94971826097	265
4	2046	148.94971826097	266
4	2069	150.010887247858	267
4	2069	150.010887247858	268
4	2069	150.010887247858	269
4	2093	151.578001645768	270
4	2093	151.578001645768	271
4	2093	151.578001645768	272
4	2116	153.305852956846	273
4	2116	153.305852956846	274
4	2116	153.305852956846	275
4	2129	154.400592660504	276
4	2129	154.400592660504	277
4	2129	154.400592660504	278
4	2145	155.793027037674	279
4	2145	155.793027037674	280
4	2145	155.793027037674	281
4	2172	156.929628407362	282
4	2172	156.929628407362	283
4	2172	156.929628407362	284
4	2186	158.568107196456	285
4	2186	158.568107196456	286
4	2186	158.568107196456	287
4	2211	160.163113679733	288
4	2211	160.163113679733	289
4	2211	160.163113679733	290
4	2238	161.595104783301	291
4	2238	161.595104783301	292
4	2238	161.595104783301	293
4	2261	163.021560976769	294
4	2261	163.021560976769	295
4	2261	163.021560976769	296
4	2291	164.613098741254	297
4	2291	164.613098741254	298
4	2291	164.613098741254	299
4	2316	166.341165601423	300
4	2316	166.341165601423	301
4	2316	166.341165601423	302
4	2335	168.28153464424	303
4	2335	168.28153464424	304
4	2335	168.28153464424	305
4	2358	169.584180164984	306
4	2358	169.584180164984	307
4	2358	169.584180164984	308
4	2376	171.328830994139	309
4	2376	171.328830994139	310
4	2376	171.328830994139	311
4	2409	172.46014332854	312
4	2409	172.46014332854	313
4	2409	172.46014332854	314
4	2426	173.518475670168	315
4	2426	173.518475670168	316
4	2426	173.518475670168	317
4	2455	174.815601620526	318
4	2455	174.815601620526	319
4	2455	174.815601620526	320
4	2466	176.43967376255	321
4	2466	176.43967376255	322
4	2466	176.43967376255	323
4	2490	177.48547829544	324
4	2490	177.48547829544	325
4	2490	177.48547829544	326
4	2514	178.575223928263	327
4	2514	178.575223928263	328
4	2514	178.575223928263	329
4	2539	180.164839177138	330
4	2539	180.164839177138	331
4	2539	180.164839177138	332
4	2563	181.289293925476	333
4	2563	181.289293925476	334
4	2563	181.289293925476	335
4	2581	182.608409761716	336
4	2581	182.608409761716	337
4	2581	182.608409761716	338
4	2604	183.888294004175	339
4	2604	183.888294004175	340
4	2604	183.888294004175	341
4	2632	184.97416516435	342
4	2632	184.97416516435	343
4	2632	184.97416516435	344
4	2654	186.00303618844	345
4	2654	186.00303618844	346
4	2654	186.00303618844	347
4	2676	187.28274819313	348
4	2676	187.28274819313	349
4	2676	187.28274819313	350
4	2700	190.692811293508	351
4	2700	190.692811293508	352
4	2700	190.692811293508	353
4	2725	192.086703450138	354
4	2725	192.086703450138	355
4	2725	192.086703450138	356
4	2743	193.261507408112	357
4	2743	193.261507408112	358
4	2743	193.261507408112	359
4	2756	195.198861484096	360
4	2756	195.198861484096	361
4	2756	195.198861484096	362
4	2782	196.728818811646	363
4	2782	196.728818811646	364
4	2782	196.728818811646	365
4	2799	198.303406580293	366
4	2799	198.303406580293	367
4	2799	198.303406580293	368
4	2822	199.840321543024	369
4	2822	199.840321543024	370
4	2822	199.840321543024	371
4	2850	200.982201628808	372
4	2850	200.982201628808	373
4	2850	200.982201628808	374
4	2876	202.813339013909	375
4	2876	202.813339013909	376
4	2876	202.813339013909	377
4	2896	204.407968945665	378
4	2896	204.407968945665	379
4	2896	204.407968945665	380
4	2919	206.058806650915	381
4	2919	206.058806650915	382
4	2919	206.058806650915	383
4	2944	207.220690329636	384
4	2944	207.220690329636	385
4	2944	207.220690329636	386
4	2962	209.028941373511	387
4	2962	209.028941373511	388
4	2962	209.028941373511	389
4	2991	210.738593466554	390
4	2991	210.738593466554	391
4	2991	210.738593466554	392
4	3013	212.180395561871	393
4	3013	212.180395561871	394
4	3013	212.180395561871	395
4	3041	213.318700775842	396
4	3041	213.318700775842	397
4	3041	213.318700775842	398
4	3074	216.302257958845	399
4	3074	216.302257958845	400
4	3074	216.302257958845	401
4	3095	218.012770818037	402
4	3095	218.012770818037	403
4	3095	218.012770818037	404
4	3105	219.878175357389	405
4	3105	219.878175357389	406
4	3105	219.878175357389	407
4	3128	221.423828495857	408
4	3128	221.423828495857	409
4	3128	221.423828495857	410
4	3149	222.971758314872	411
4	3149	222.971758314872	412
4	3149	222.971758314872	413
4	3174	224.210376005928	414
4	3174	224.210376005928	415
4	3174	224.210376005928	416
4	3200	225.414196437445	417
4	3200	225.414196437445	418
4	3200	225.414196437445	419
4	3221	226.433048202512	420
4	3221	226.433048202512	421
4	3221	226.433048202512	422
4	3242	227.721508637108	423
4	3242	227.721508637108	424
4	3242	227.721508637108	425
4	3268	228.791484578433	426
4	3268	228.791484578433	427
4	3268	228.791484578433	428
4	3291	230.474272749349	429
4	3291	230.474272749349	430
4	3291	230.474272749349	431
4	3316	232.396092970177	432
4	3316	232.396092970177	433
4	3316	232.396092970177	434
4	3340	233.870558906046	435
4	3340	233.870558906046	436
4	3340	233.870558906046	437
4	3365	235.394460113428	438
4	3365	235.394460113428	439
4	3365	235.394460113428	440
4	3383	236.56177797341	441
4	3383	236.56177797341	442
4	3383	236.56177797341	443
4	3407	237.89229894329	444
4	3407	237.89229894329	445
4	3407	237.89229894329	446
4	3430	239.505106692781	447
4	3430	239.505106692781	448
4	3430	239.505106692781	449
5	14	0.230608645336	0
5	14	0.230608645336	1
5	44	2.147696785028	2
5	44	2.147696785028	3
5	65	4.177967119641	4
5	65	4.177967119641	5
5	94	5.596860225932	6
5	94	5.596860225932	7
5	109	7.081909079566	8
5	109	7.081909079566	9
5	184	11.288947750751	10
5	184	11.288947750751	11
5	227	13.58237100436	12
5	227	13.58237100436	13
5	270	16.356788746018	14
5	270	16.356788746018	15
5	299	17.384280533955	16
5	299	17.384280533955	17
5	320	19.322732885526	18
5	320	19.322732885526	19
5	345	20.465883388358	20
5	345	20.465883388358	21
5	379	25.375516076681	22
5	379	25.375516076681	23
5	427	28.304077525337	24
5	427	28.304077525337	25
5	455	29.487791190795	26
5	455	29.487791190795	27
5	502	31.991117601285	28
5	502	31.991117601285	29
5	557	36.25286014271	30
5	557	36.25286014271	31
5	588	38.063966530576	32
5	588	38.063966530576	33
5	609	39.528790790012	34
5	609	39.528790790012	35
5	635	40.680148389458	36
5	635	40.680148389458	37
5	666	42.94847082183	38
5	666	42.94847082183	39
5	735	48.270478811682	40
5	735	48.270478811682	41
5	782	51.550949933973	42
5	782	51.550949933973	43
5	854	57.911752170964	44
5	854	57.911752170964	45
5	925	64.465580742002	46
5	925	64.465580742002	47
5	1020	71.056784933207	48
5	1020	71.056784933207	49
5	1045	72.856664944425	50
5	1045	72.856664944425	51
5	1066	74.644670634174	52
5	1066	74.644670634174	53
5	1102	78.429524759603	54
5	1102	78.429524759603	55
5	1141	82.090256604021	56
5	1141	82.090256604021	57
5	1166	83.860535168791	58
5	1166	83.860535168791	59
5	1213	86.616882517189	60
5	1213	86.616882517189	61
5	1373	99.813739671383	62
5	1373	99.813739671383	63
5	1426	104.425448663743	64
5	1426	104.425448663743	65
5	1451	106.418163124228	66
5	1451	106.418163124228	67
5	1497	111.244570455502	68
5	1497	111.244570455502	69
5	1529	112.635555143089	70
5	1529	112.635555143089	71
5	1631	120.552082713592	72
5	1631	120.552082713592	73
5	1664	122.444688863311	74
5	1664	122.444688863311	75
5	1692	124.279762536816	76
5	1692	124.279762536816	77
5	1717	125.967923589883	78
5	1717	125.967923589883	79
5	1742	127.075118205248	80
5	1742	127.075118205248	81
5	1763	128.507956036403	82
5	1763	128.507956036403	83
5	1834	134.323104114336	84
5	1834	134.323104114336	85
5	1883	137.524132735123	86
5	1883	137.524132735123	87
5	1914	138.820386026829	88
5	1914	138.820386026829	89
5	2010	145.953903589579	90
5	2010	145.953903589579	91
5	2033	147.454927832968	92
5	2033	147.454927832968	93
5	2102	151.590309085595	94
5	2102	151.590309085595	95
5	2156	155.814996463892	96
5	2156	155.814996463892	97
5	2202	158.614040463637	98
5	2202	158.614040463637	99
5	2227	160.231317234753	100
5	2227	160.231317234753	101
5	2247	161.612114153792	102
5	2247	161.612114153792	103
5	2273	163.079337394802	104
5	2273	163.079337394802	105
5	2317	166.341845934838	106
5	2317	166.341845934838	107
5	2342	168.292883807389	108
5	2342	168.292883807389	109
5	2392	171.381129118908	110
5	2392	171.381129118908	111
5	2410	172.46487730257	112
5	2410	172.46487730257	113
5	2438	173.591484800121	114
5	2438	173.591484800121	115
5	2481	176.483088546116	116
5	2481	176.483088546116	117
5	2550	180.181189363647	118
5	2550	180.181189363647	119
5	2619	183.937987572783	120
5	2619	183.937987572783	121
5	2644	185.007343837991	122
5	2644	185.007343837991	123
5	2665	186.04421417233	124
5	2665	186.04421417233	125
5	2686	187.296800614361	126
5	2686	187.296800614361	127
5	2769	195.263784303871	128
5	2769	195.263784303871	129
5	2790	196.760915876593	130
5	2790	196.760915876593	131
5	2831	199.866320558393	132
5	2831	199.866320558393	133
5	2859	201.004754925423	134
5	2859	201.004754925423	135
5	2905	204.418375142801	136
5	2905	204.418375142801	137
5	2978	209.079395707547	138
5	2978	209.079395707547	139
5	3003	210.778435686076	140
5	3003	210.778435686076	141
5	3025	212.204119256642	142
5	3025	212.204119256642	143
5	3064	215.130220146902	144
5	3064	215.130220146902	145
5	3139	221.456713561075	146
5	3139	221.456713561075	147
5	3186	224.250848031087	148
5	3186	224.250848031087	149
5	3205	225.421716970816	150
5	3205	225.421716970816	151
5	3277	228.808144722583	152
5	3277	228.808144722583	153
5	3302	230.494615250997	154
5	3302	230.494615250997	155
5	3349	233.895934355094	156
5	3349	233.895934355094	157
5	3373	235.425403497151	158
5	3373	235.425403497151	159
5	3392	236.597904852728	160
5	3392	236.597904852728	161
5	3420	237.921086370247	162
5	3420	237.921086370247	163
6	22	0.252709066794	0
6	22	0.252709066794	1
6	22	0.252709066794	2
6	40	2.131225496296	3
6	40	2.131225496296	4
6	40	2.131225496296	5
6	57	4.129019810132	6
6	57	4.129019810132	7
6	57	4.129019810132	8
6	82	5.57092289322	9
6	82	5.57092289322	10
6	82	5.57092289322	11
6	116	7.094798830645	12
6	116	7.094798830645	13
6	116	7.094798830645	14
6	137	8.347905584289	15
6	137	8.347905584289	16
6	137	8.347905584289	17
6	154	9.754210671659	18
6	154	9.754210671659	19
6	154	9.754210671659	20
6	177	11.270100026944	21
6	177	11.270100026944	22
6	177	11.270100026944	23
6	205	12.384906950141	24
6	205	12.384906950141	25
6	205	12.384906950141	26
6	242	14.547435132335	27
6	242	14.547435132335	28
6	242	14.547435132335	29
6	271	16.360469552443	30
6	271	16.360469552443	31
6	271	16.360469552443	32
6	292	17.363165410665	33
6	292	17.363165410665	34
6	292	17.363165410665	35
6	338	20.451451220836	36
6	338	20.451451220836	37
6	338	20.451451220836	38
6	386	25.415952210318	39
6	386	25.415952210318	40
6	386	25.415952210318	41
6	408	26.599107703096	42
6	408	26.599107703096	43
6	408	26.599107703096	44
6	451	29.466413049215	45
6	451	29.466413049215	46
6	451	29.466413049215	47
6	476	30.532796015642	48
6	476	30.532796015642	49
6	476	30.532796015642	50
6	494	31.95561981104	51
6	494	31.95561981104	52
6	494	31.95561981104	53
6	516	33.360859007106	54
6	516	33.360859007106	55
6	516	33.360859007106	56
6	562	36.262959063399	57
6	562	36.262959063399	58
6	562	36.262959063399	59
6	580	38.032621955051	60
6	580	38.032621955051	61
6	580	38.032621955051	62
6	601	39.497238773263	63
6	601	39.497238773263	64
6	601	39.497238773263	65
6	631	40.675814098908	66
6	631	40.675814098908	67
6	631	40.675814098908	68
6	654	42.909131548602	69
6	654	42.909131548602	70
6	654	42.909131548602	71
6	687	44.462764342259	72
6	687	44.462764342259	73
6	687	44.462764342259	74
6	703	46.434200439833	75
6	703	46.434200439833	76
6	703	46.434200439833	77
6	723	48.238083068832	78
6	723	48.238083068832	79
6	723	48.238083068832	80
6	753	49.887775940094	81
6	753	49.887775940094	82
6	753	49.887775940094	83
6	775	51.534079113131	84
6	775	51.534079113131	85
6	775	51.534079113131	86
6	799	53.438825950171	87
6	799	53.438825950171	88
6	799	53.438825950171	89
6	823	54.984686590503	90
6	823	54.984686590503	91
6	823	54.984686590503	92
6	850	57.895293284374	93
6	850	57.895293284374	94
6	850	57.895293284374	95
6	878	62.262834432414	96
6	878	62.262834432414	97
6	878	62.262834432414	98
6	903	63.360901685358	99
6	903	63.360901685358	100
6	903	63.360901685358	101
6	928	64.483721836519	102
6	928	64.483721836519	103
6	928	64.483721836519	104
6	950	65.716843051401	105
6	950	65.716843051401	106
6	950	65.716843051401	107
6	969	67.720827434402	108
6	969	67.720827434402	109
6	969	67.720827434402	110
6	994	69.429414454072	111
6	994	69.429414454072	112
6	994	69.429414454072	113
6	1012	71.027673841648	114
6	1012	71.027673841648	115
6	1012	71.027673841648	116
6	1035	72.805098485071	117
6	1035	72.805098485071	118
6	1035	72.805098485071	119
6	1067	74.649518846502	120
6	1067	74.649518846502	121
6	1067	74.649518846502	122
6	1094	78.398179701368	123
6	1094	78.398179701368	124
6	1094	78.398179701368	125
6	1133	82.024389900873	126
6	1133	82.024389900873	127
6	1133	82.024389900873	128
6	1162	83.846605596141	129
6	1162	83.846605596141	130
6	1162	83.846605596141	131
6	1187	85.605467136728	132
6	1187	85.605467136728	133
6	1187	85.605467136728	134
6	1201	86.584692205031	135
6	1201	86.584692205031	136
6	1201	86.584692205031	137
6	1245	89.825293613475	138
6	1245	89.825293613475	139
6	1245	89.825293613475	140
6	1270	92.567778388823	141
6	1270	92.567778388823	142
6	1270	92.567778388823	143
6	1306	94.947390025596	144
6	1306	94.947390025596	145
6	1306	94.947390025596	146
6	1328	96.505935670487	147
6	1328	96.505935670487	148
6	1328	96.505935670487	149
6	1344	98.009034534165	150
6	1344	98.009034534165	151
6	1344	98.009034534165	152
6	1364	99.766376195657	153
6	1364	99.766376195657	154
6	1364	99.766376195657	155
6	1400	102.777328553969	156
6	1400	102.777328553969	157
6	1400	102.777328553969	158
6	1415	104.393945656866	159
6	1415	104.393945656866	160
6	1415	104.393945656866	161
6	1443	106.365120288863	162
6	1443	106.365120288863	163
6	1443	106.365120288863	164
6	1478	109.678772176872	165
6	1478	109.678772176872	166
6	1478	109.678772176872	167
6	1501	111.260300339953	168
6	1501	111.260300339953	169
6	1501	111.260300339953	170
6	1525	112.59579926014	171
6	1525	112.59579926014	172
6	1525	112.59579926014	173
6	1546	114.429938910366	174
6	1546	114.429938910366	175
6	1546	114.429938910366	176
6	1572	116.051210410011	177
6	1572	116.051210410011	178
6	1572	116.051210410011	179
6	1587	117.204398114775	180
6	1587	117.204398114775	181
6	1587	117.204398114775	182
6	1612	118.913206158081	183
6	1612	118.913206158081	184
6	1612	118.913206158081	185
6	1639	120.574009286882	186
6	1639	120.574009286882	187
6	1639	120.574009286882	188
6	1660	122.435016983274	189
6	1660	122.435016983274	190
6	1660	122.435016983274	191
6	1688	124.243990995835	192
6	1688	124.243990995835	193
6	1688	124.243990995835	194
6	1713	125.951875892003	195
6	1713	125.951875892003	196
6	1713	125.951875892003	197
6	1738	127.058960589293	198
6	1738	127.058960589293	199
6	1738	127.058960589293	200
6	1764	128.514268178821	201
6	1764	128.514268178821	202
6	1764	128.514268178821	203
6	1784	129.973094279751	204
6	1784	129.973094279751	205
6	1784	129.973094279751	206
6	1813	132.79655785861	207
6	1813	132.79655785861	208
6	1813	132.79655785861	209
6	1841	134.341790470628	210
6	1841	134.341790470628	211
6	1841	134.341790470628	212
6	1860	135.990924289517	213
6	1860	135.990924289517	214
6	1860	135.990924289517	215
6	1888	137.537199579474	216
6	1888	137.537199579474	217
6	1888	137.537199579474	218
6	1910	138.80762245989	219
6	1910	138.80762245989	220
6	1910	138.80762245989	221
6	1927	139.989607404896	222
6	1927	139.989607404896	223
6	1927	139.989607404896	224
6	1983	143.947525642026	225
6	1983	143.947525642026	226
6	1983	143.947525642026	227
6	2002	145.918086897389	228
6	2002	145.918086897389	229
6	2002	145.918086897389	230
6	2034	147.460643421876	231
6	2034	147.460643421876	232
6	2034	147.460643421876	233
6	2050	148.964568179675	234
6	2050	148.964568179675	235
6	2050	148.964568179675	236
6	2080	150.061721077031	237
6	2080	150.061721077031	238
6	2080	150.061721077031	239
6	2105	151.605314549194	240
6	2105	151.605314549194	241
6	2105	151.605314549194	242
6	2155	155.813370152386	243
6	2155	155.813370152386	244
6	2155	155.813370152386	245
6	2176	156.947725601627	246
6	2176	156.947725601627	247
6	2176	156.947725601627	248
6	2191	158.583829594301	249
6	2191	158.583829594301	250
6	2191	158.583829594301	251
6	2215	160.176575604255	252
6	2215	160.176575604255	253
6	2215	160.176575604255	254
6	2245	161.606025340514	255
6	2245	161.606025340514	256
6	2245	161.606025340514	257
6	2276	163.124510070043	258
6	2276	163.124510070043	259
6	2276	163.124510070043	260
6	2295	164.622529220352	261
6	2295	164.622529220352	262
6	2295	164.622529220352	263
6	2323	166.376661745355	264
6	2323	166.376661745355	265
6	2323	166.376661745355	266
6	2345	168.305848392456	267
6	2345	168.305848392456	268
6	2345	168.305848392456	269
6	2388	171.366611827637	270
6	2388	171.366611827637	271
6	2388	171.366611827637	272
6	2416	172.484872337008	273
6	2416	172.484872337008	274
6	2416	172.484872337008	275
6	2471	176.455838464221	276
6	2471	176.455838464221	277
6	2471	176.455838464221	278
6	2502	177.517303055569	279
6	2502	177.517303055569	280
6	2502	177.517303055569	281
6	2520	178.590468644862	282
6	2520	178.590468644862	283
6	2520	178.590468644862	284
6	2543	180.169262181705	285
6	2543	180.169262181705	286
6	2543	180.169262181705	287
6	2567	181.307238340871	288
6	2567	181.307238340871	289
6	2567	181.307238340871	290
6	2586	182.625441938182	291
6	2586	182.625441938182	292
6	2586	182.625441938182	293
6	2612	183.902067517673	294
6	2612	183.902067517673	295
6	2612	183.902067517673	296
6	2637	184.98455408221	297
6	2637	184.98455408221	298
6	2637	184.98455408221	299
6	2704	190.694739688886	300
6	2704	190.694739688886	301
6	2704	190.694739688886	302
6	2729	192.087234927557	303
6	2729	192.087234927557	304
6	2729	192.087234927557	305
6	2768	195.256844060382	306
6	2768	195.256844060382	307
6	2768	195.256844060382	308
6	2811	198.349578965874	309
6	2811	198.349578965874	310
6	2811	198.349578965874	311
6	2834	199.873305185851	312
6	2834	199.873305185851	313
6	2834	199.873305185851	314
6	2858	201.000978949127	315
6	2858	201.000978949127	316
6	2858	201.000978949127	317
6	2880	202.823282439844	318
6	2880	202.823282439844	319
6	2880	202.823282439844	320
6	2906	204.42417719487	321
6	2906	204.42417719487	322
6	2906	204.42417719487	323
6	2930	206.110386555431	324
6	2930	206.110386555431	325
6	2930	206.110386555431	326
6	2949	207.237702918278	327
6	2949	207.237702918278	328
6	2949	207.237702918278	329
6	2970	209.058812356797	330
6	2970	209.058812356797	331
6	2970	209.058812356797	332
6	2995	210.759293576163	333
6	2995	210.759293576163	334
6	2995	210.759293576163	335
6	3024	212.198215801368	336
6	3024	212.198215801368	337
6	3024	212.198215801368	338
6	3049	213.357071337188	339
6	3049	213.357071337188	340
6	3049	213.357071337188	341
6	3085	216.326971877055	342
6	3085	216.326971877055	343
6	3085	216.326971877055	344
6	3110	219.894196220324	345
6	3110	219.894196220324	346
6	3110	219.894196220324	347
6	3160	222.993473784836	348
6	3160	222.993473784836	349
6	3160	222.993473784836	350
6	3178	224.225285138568	351
6	3178	224.225285138568	352
6	3178	224.225285138568	353
6	3204	225.417525908779	354
6	3204	225.417525908779	355
6	3204	225.417525908779	356
6	3232	226.450766392657	357
6	3232	226.450766392657	358
6	3232	226.450766392657	359
6	3246	227.735981989715	360
6	3246	227.735981989715	361
6	3246	227.735981989715	362
6	3273	228.803712173356	363
6	3273	228.803712173356	364
6	3273	228.803712173356	365
6	3301	230.490276377429	366
6	3301	230.490276377429	367
6	3301	230.490276377429	368
6	3323	232.422008460049	369
6	3323	232.422008460049	370
6	3323	232.422008460049	371
6	3348	233.890326160089	372
6	3348	233.890326160089	373
6	3348	233.890326160089	374
6	3391	236.592164794523	375
6	3391	236.592164794523	376
6	3391	236.592164794523	377
6	3416	237.903092228932	378
6	3416	237.903092228932	379
6	3416	237.903092228932	380
6	3438	239.520699667442	381
6	3438	239.520699667442	382
6	3438	239.520699667442	383
7	43	2.141225496296	0
7	46	2.157696785028	1
7	60	4.139019810132	2
7	115	7.091909079566	3
7	143	8.357905584289	4
7	157	9.764210671659	5
7	186	11.298947750751	6
7	208	12.394906950141	7
7	229	13.59237100436	8
7	276	16.370469552443	9
7	298	17.373165410665	10
7	322	19.332732885526	11
7	347	20.475883388358	12
7	381	25.385516076681	13
7	411	26.609107703096	14
7	497	31.96561981104	15
7	504	32.001117601285	16
7	583	38.042621955051	17
7	657	42.919131548602	18
7	668	42.95847082183	19
7	709	46.444200439833	20
7	759	49.897775940094	21
7	784	51.560949933973	22
7	856	57.921752170964	23
7	906	63.370901685358	24
7	997	69.439414454072	25
7	1016	71.037673841648	26
7	1022	71.066784933207	27
7	1040	72.815098485071	28
7	1069	74.654670634174	29
7	1072	74.659518846502	30
7	1097	78.408179701368	31
7	1105	78.439524759603	32
7	1136	82.034389900873	33
7	1190	85.615467136728	34
7	1215	86.626882517189	35
7	1309	94.957390025596	36
7	1351	98.019034534165	37
7	1428	104.435448663743	38
7	1481	109.688772176872	39
7	1528	112.60579926014	40
7	1531	112.645555143089	41
7	1575	116.061210410011	42
7	1590	117.214398114775	43
7	1694	124.289762536816	44
7	1766	128.517956036403	45
7	1819	132.80655785861	46
7	1844	134.351790470628	47
7	1866	136.000924289517	48
7	1887	137.534132735123	49
7	1930	139.999607404896	50
7	2039	147.470643421876	51
7	2054	148.974568179675	52
7	2159	155.823370152386	53
7	2161	155.824996463892	54
7	2179	156.957725601627	55
7	2197	158.593829594301	56
7	2204	158.624040463637	57
7	2218	160.186575604255	58
7	2229	160.241317234753	59
7	2250	161.616025340514	60
7	2254	161.622114153792	61
7	2301	164.632529220352	62
7	2322	166.351845934838	63
7	2349	168.315848392456	64
7	2391	171.376611827637	65
7	2476	176.465838464221	66
7	2505	177.527303055569	67
7	2523	178.600468644862	68
7	2549	180.179262181705	69
7	2592	182.635441938182	70
7	2621	183.947987572783	71
7	2667	186.05421417233	72
7	2710	190.704739688886	73
7	2735	192.097234927557	74
7	2814	198.359578965874	75
7	2862	201.010978949127	76
7	2886	202.833282439844	77
7	2908	204.428375142801	78
7	2911	204.43417719487	79
7	2974	209.068812356797	80
7	3088	216.336971877055	81
7	3163	223.003473784836	82
7	3188	224.260848031087	83
7	3211	225.427525908779	84
7	3282	228.818144722583	85
7	3305	230.500276377429	86
7	3329	232.432008460049	87
7	3352	233.900326160089	88
7	3354	233.905934355094	89
7	3397	236.607904852728	90
7	3419	237.913092228932	91
7	3442	239.530699667442	92

