version 2
run General-2-20230921-22:36:11-7122
attr configname General
attr datetime 20230921-22:36:11
attr experiment General
attr inifile omnetpp.ini
attr iterationvars ""
attr iterationvarsf ""
attr measurement ""
attr network Network3
attr processid 7122
attr repetition 2
attr replication #2
attr resultdir results
attr runnumber 2
attr seedset 2
param Network3.node[*].transmissionTime "uniform(1s, 2s)"
param Network3.node[*].delayTime "uniform(0.01s, 0.2s)"
param Network3.node[*].processingTime exponential(0.01s)
param Network3.node[0].lossProbability 0
param Network3.node[1].lossProbability 0.2
param Network3.node[2].lossProbability 0.2
param Network3.node[3].lossProbability "0.2 / 2"
param Network3.node[4].lossProbability "0.2 / 2"
param Network3.node[6].lossProbability "0.2 * 2"
param Network3.node[7].lossProbability "0.2 * 2"
param Network3.node[5].lossProbability "0.2 * 3"

vector 0 Network3.node[0] txVector ETV
vector 1 Network3.node[2] txVector ETV
vector 2 Network3.node[4] txVector ETV
vector 3 Network3.node[1] txVector ETV
vector 4 Network3.node[3] txVector ETV
vector 5 Network3.node[6] txVector ETV
vector 6 Network3.node[7] txVector ETV
vector 7 Network3.node[5] rxVector ETV
0	1	0.092839031499	0
0	1	0.092839031499	1
0	26	1.277921112972	2
0	26	1.277921112972	3
0	51	2.791499230797	4
0	51	2.791499230797	5
0	73	4.357264361131	6
0	73	4.357264361131	7
0	95	6.348116358063	8
0	95	6.348116358063	9
0	117	7.815958849639	10
0	117	7.815958849639	11
0	142	9.757152152499	12
0	142	9.757152152499	13
0	164	11.080693469401	14
0	164	11.080693469401	15
0	186	12.742895491439	16
0	186	12.742895491439	17
0	211	14.400407875207	18
0	211	14.400407875207	19
0	236	15.769015416753	20
0	236	15.769015416753	21
0	254	17.360272772627	22
0	254	17.360272772627	23
0	279	18.989632499188	24
0	279	18.989632499188	25
0	301	20.324727163434	26
0	301	20.324727163434	27
0	311	21.340837428596	28
0	311	21.340837428596	29
0	336	22.431207806587	30
0	336	22.431207806587	31
0	350	23.856575102096	32
0	350	23.856575102096	33
0	356	25.564546276599	34
0	356	25.564546276599	35
0	378	27.067325024184	36
0	378	27.067325024184	37
0	403	28.092526447743	38
0	403	28.092526447743	39
0	428	30.057307102501	40
0	428	30.057307102501	41
0	450	31.265809596998	42
0	450	31.265809596998	43
0	472	32.372996997104	44
0	472	32.372996997104	45
0	478	34.309778071723	46
0	478	34.309778071723	47
0	500	36.164897739205	48
0	500	36.164897739205	49
0	518	37.284937531471	50
0	518	37.284937531471	51
0	540	38.714526147365	52
0	540	38.714526147365	53
0	565	39.802313704758	54
0	565	39.802313704758	55
0	579	40.843559655842	56
0	579	40.843559655842	57
0	604	42.275692756536	58
0	604	42.275692756536	59
0	629	43.371566073984	60
0	629	43.371566073984	61
0	651	44.68395391923	62
0	651	44.68395391923	63
0	673	46.429492733922	64
0	673	46.429492733922	65
0	698	47.768261369798	66
0	698	47.768261369798	67
0	723	49.379350669697	68
0	723	49.379350669697	69
0	748	50.858530995917	70
0	748	50.858530995917	71
0	766	52.233912428623	72
0	766	52.233912428623	73
0	791	54.198279264165	74
0	791	54.198279264165	75
0	798	55.412220308572	76
0	798	55.412220308572	77
0	820	56.753430264318	78
0	820	56.753430264318	79
0	838	57.78770573881	80
0	838	57.78770573881	81
0	863	59.623954938273	82
0	863	59.623954938273	83
0	885	61.235273896032	84
0	885	61.235273896032	85
0	903	62.758031953373	86
0	903	62.758031953373	87
0	928	64.567965621841	88
0	928	64.567965621841	89
0	942	65.571301064701	90
0	942	65.571301064701	91
0	960	67.095432411195	92
0	960	67.095432411195	93
0	985	68.54190052046	94
0	985	68.54190052046	95
0	1006	69.803416725262	96
0	1006	69.803416725262	97
0	1031	71.64528435633	98
0	1031	71.64528435633	99
0	1053	73.359939596862	100
0	1053	73.359939596862	101
0	1059	74.936183295925	102
0	1059	74.936183295925	103
0	1077	76.762980776387	104
0	1077	76.762980776387	105
0	1099	77.833677812726	106
0	1099	77.833677812726	107
0	1124	79.167574794278	108
0	1124	79.167574794278	109
0	1149	80.471160593456	110
0	1149	80.471160593456	111
0	1174	81.919722806443	112
0	1174	81.919722806443	113
0	1199	83.502987289815	114
0	1199	83.502987289815	115
0	1218	85.056867938037	116
0	1218	85.056867938037	117
0	1243	86.380901135518	118
0	1243	86.380901135518	119
0	1268	88.004942366634	120
0	1268	88.004942366634	121
0	1278	89.118576296153	122
0	1278	89.118576296153	123
0	1303	90.41359709321	124
0	1303	90.41359709321	125
0	1317	92.172161884852	126
0	1317	92.172161884852	127
0	1320	93.174224126166	128
0	1320	93.174224126166	129
0	1345	95.029767104205	130
0	1345	95.029767104205	131
0	1359	96.061213913387	132
0	1359	96.061213913387	133
0	1381	97.898527232478	134
0	1381	97.898527232478	135
0	1403	99.433482880485	136
0	1403	99.433482880485	137
0	1417	101.32291347791	138
0	1417	101.32291347791	139
0	1439	103.201093631345	140
0	1439	103.201093631345	141
0	1442	104.785508831046	142
0	1442	104.785508831046	143
0	1457	106.3849089055	144
0	1457	106.3849089055	145
0	1482	107.561969352202	146
0	1482	107.561969352202	147
0	1507	109.481679737582	148
0	1507	109.481679737582	149
0	1526	111.006382259322	150
0	1526	111.006382259322	151
0	1548	112.081881969483	152
0	1548	112.081881969483	153
0	1570	114.061968149864	154
0	1570	114.061968149864	155
0	1591	115.662377697662	156
0	1591	115.662377697662	157
0	1616	116.891620637164	158
0	1616	116.891620637164	159
0	1619	118.311389598078	160
0	1619	118.311389598078	161
0	1644	119.537936183172	162
0	1644	119.537936183172	163
0	1666	120.971459166161	164
0	1666	120.971459166161	165
0	1688	122.746980394484	166
0	1688	122.746980394484	167
0	1691	124.379291320234	168
0	1691	124.379291320234	169
0	1713	126.274268132416	170
0	1713	126.274268132416	171
0	1734	127.642654170529	172
0	1734	127.642654170529	173
0	1756	129.554282257813	174
0	1756	129.554282257813	175
0	1777	131.094841219033	176
0	1777	131.094841219033	177
0	1791	132.467185628149	178
0	1791	132.467185628149	179
0	1816	133.697133408175	180
0	1816	133.697133408175	181
0	1838	135.003387616263	182
0	1838	135.003387616263	183
0	1863	136.896981112906	184
0	1863	136.896981112906	185
0	1888	138.522858828786	186
0	1888	138.522858828786	187
0	1913	139.64980728297	188
0	1913	139.64980728297	189
0	1938	141.648699514116	190
0	1938	141.648699514116	191
0	1960	142.913215110791	192
0	1960	142.913215110791	193
0	1985	144.094550631954	194
0	1985	144.094550631954	195
0	2007	145.300298371133	196
0	2007	145.300298371133	197
0	2032	147.051029066103	198
0	2032	147.051029066103	199
0	2057	148.215333532555	200
0	2057	148.215333532555	201
0	2067	149.786738083478	202
0	2067	149.786738083478	203
0	2092	151.363337187109	204
0	2092	151.363337187109	205
0	2117	153.125115369925	206
0	2117	153.125115369925	207
0	2120	154.550614577964	208
0	2120	154.550614577964	209
0	2130	156.001921064466	210
0	2130	156.001921064466	211
0	2155	157.280745380105	212
0	2155	157.280745380105	213
0	2169	158.530434002647	214
0	2169	158.530434002647	215
0	2191	159.707795193897	216
0	2191	159.707795193897	217
0	2212	161.16721005157	218
0	2212	161.16721005157	219
0	2237	162.38649088099	220
0	2237	162.38649088099	221
0	2262	163.899691088836	222
0	2262	163.899691088836	223
0	2283	165.33889828414	224
0	2283	165.33889828414	225
0	2308	167.17691269588	226
0	2308	167.17691269588	227
0	2330	168.454923016963	228
0	2330	168.454923016963	229
0	2355	170.375571950817	230
0	2355	170.375571950817	231
0	2369	172.075709258452	232
0	2369	172.075709258452	233
0	2372	173.292732491404	234
0	2372	173.292732491404	235
0	2394	174.743102366351	236
0	2394	174.743102366351	237
0	2416	176.722008540774	238
0	2416	176.722008540774	239
0	2438	178.000928590087	240
0	2438	178.000928590087	241
0	2463	179.408532744286	242
0	2463	179.408532744286	243
0	2488	180.987060889381	244
0	2488	180.987060889381	245
0	2506	182.313680552424	246
0	2506	182.313680552424	247
0	2512	183.492636574444	248
0	2512	183.492636574444	249
0	2515	185.36866126071	250
0	2515	185.36866126071	251
0	2536	187.208635109489	252
0	2536	187.208635109489	253
0	2561	189.060408209928	254
0	2561	189.060408209928	255
0	2586	190.67001870299	256
0	2586	190.67001870299	257
0	2589	192.378057924111	258
0	2589	192.378057924111	259
0	2595	194.373667926306	260
0	2595	194.373667926306	261
0	2616	196.195783596031	262
0	2616	196.195783596031	263
0	2641	198.192918965604	264
0	2641	198.192918965604	265
0	2655	199.267776067613	266
0	2655	199.267776067613	267
0	2677	201.17568720273	268
0	2677	201.17568720273	269
0	2698	203.027275457757	270
0	2698	203.027275457757	271
0	2712	204.950165523228	272
0	2712	204.950165523228	273
0	2734	206.528670812736	274
0	2734	206.528670812736	275
0	2756	207.68975507702	276
0	2756	207.68975507702	277
0	2778	209.085990817764	278
0	2778	209.085990817764	279
0	2799	211.035317320855	280
0	2799	211.035317320855	281
0	2821	212.884093662504	282
0	2821	212.884093662504	283
0	2843	214.472507953657	284
0	2843	214.472507953657	285
0	2857	216.295421091154	286
0	2857	216.295421091154	287
0	2879	218.051566602442	288
0	2879	218.051566602442	289
0	2885	219.569181753568	290
0	2885	219.569181753568	291
0	2907	221.265665950965	292
0	2907	221.265665950965	293
0	2910	222.377209176788	294
0	2910	222.377209176788	295
0	2916	223.676417895373	296
0	2916	223.676417895373	297
0	2934	225.56586325589	298
0	2934	225.56586325589	299
0	2956	227.23080484291	300
0	2956	227.23080484291	301
0	2977	228.955678926561	302
0	2977	228.955678926561	303
0	2999	230.526527347289	304
0	2999	230.526527347289	305
0	3021	232.153327903025	306
0	3021	232.153327903025	307
0	3046	234.046682897968	308
0	3046	234.046682897968	309
0	3068	235.403457918916	310
0	3068	235.403457918916	311
0	3093	236.479794656638	312
0	3093	236.479794656638	313
0	3115	237.703160065239	314
0	3115	237.703160065239	315
0	3137	238.92678196357	316
0	3137	238.92678196357	317
1	4	0.110816610738	0
1	4	0.110816610738	1
1	33	1.3033078859	2
1	33	1.3033078859	3
1	66	2.843239377654	4
1	66	2.843239377654	5
1	88	4.416034783474	6
1	88	4.416034783474	7
1	103	6.374121159045	8
1	103	6.374121159045	9
1	121	7.838066878298	10
1	121	7.838066878298	11
1	146	9.772044259745	12
1	146	9.772044259745	13
1	168	11.097566587698	14
1	168	11.097566587698	15
1	190	12.758286944047	16
1	190	12.758286944047	17
1	219	14.426869472038	18
1	219	14.426869472038	19
1	240	15.786954107649	20
1	240	15.786954107649	21
1	257	17.372197902429	22
1	257	17.372197902429	23
1	294	19.039824201527	24
1	294	19.039824201527	25
1	304	20.33914536772	26
1	304	20.33914536772	27
1	314	21.355865189012	28
1	314	21.355865189012	29
1	340	22.44829280049	30
1	340	22.44829280049	31
1	353	23.871243844285	32
1	353	23.871243844285	33
1	359	25.578579057271	34
1	359	25.578579057271	35
1	381	27.078402412601	36
1	381	27.078402412601	37
1	418	28.153248588487	38
1	418	28.153248588487	39
1	431	30.069872763636	40
1	431	30.069872763636	41
1	453	31.278305514657	42
1	453	31.278305514657	43
1	475	32.383130251346	44
1	475	32.383130251346	45
1	481	34.325323047585	46
1	481	34.325323047585	47
1	503	36.177841640845	48
1	503	36.177841640845	49
1	521	37.295851879367	50
1	521	37.295851879367	51
1	543	38.737547993715	52
1	543	38.737547993715	53
1	569	39.82329645119	54
1	569	39.82329645119	55
1	582	40.85625660031	56
1	582	40.85625660031	57
1	620	42.314238662898	58
1	620	42.314238662898	59
1	638	43.413681599886	60
1	638	43.413681599886	61
1	655	44.707775549761	62
1	655	44.707775549761	63
1	676	46.443686944312	64
1	676	46.443686944312	65
1	701	47.782192637247	66
1	701	47.782192637247	67
1	726	49.395903852168	68
1	726	49.395903852168	69
1	760	50.899443233428	70
1	760	50.899443233428	71
1	770	52.24568198972	72
1	770	52.24568198972	73
1	802	55.430495266821	74
1	802	55.430495266821	75
1	829	56.777220871314	76
1	829	56.777220871314	77
1	841	57.801327989146	78
1	841	57.801327989146	79
1	866	59.636243313459	80
1	866	59.636243313459	81
1	894	61.264801444789	82
1	894	61.264801444789	83
1	907	62.775471011215	84
1	907	62.775471011215	85
1	932	64.608185102233	86
1	932	64.608185102233	87
1	951	65.605682496219	88
1	951	65.605682496219	89
1	963	67.108901957952	90
1	963	67.108901957952	91
1	988	68.557716639969	92
1	988	68.557716639969	93
1	1013	69.851852700018	94
1	1013	69.851852700018	95
1	1047	71.721108205185	96
1	1047	71.721108205185	97
1	1056	73.372691392359	98
1	1056	73.372691392359	99
1	1062	74.949415522235	100
1	1062	74.949415522235	101
1	1080	76.779499788759	102
1	1080	76.779499788759	103
1	1102	77.849253098036	104
1	1102	77.849253098036	105
1	1127	79.186129384818	106
1	1127	79.186129384818	107
1	1152	80.487366703649	108
1	1152	80.487366703649	109
1	1178	81.93592805079	110
1	1178	81.93592805079	111
1	1221	85.078126433425	112
1	1221	85.078126433425	113
1	1246	86.392100817414	114
1	1246	86.392100817414	115
1	1271	88.027561688232	116
1	1271	88.027561688232	117
1	1281	89.131263591298	118
1	1281	89.131263591298	119
1	1306	90.426170866915	120
1	1306	90.426170866915	121
1	1324	93.190559103001	122
1	1324	93.190559103001	123
1	1349	95.046724385022	124
1	1349	95.046724385022	125
1	1375	96.104960046536	126
1	1375	96.104960046536	127
1	1384	97.909279845392	128
1	1384	97.909279845392	129
1	1420	101.339910603696	130
1	1420	101.339910603696	131
1	1460	106.410730600298	132
1	1460	106.410730600298	133
1	1494	107.602298699723	134
1	1494	107.602298699723	135
1	1529	111.022882485218	136
1	1529	111.022882485218	137
1	1551	112.096475467443	138
1	1551	112.096475467443	139
1	1573	114.073245127442	140
1	1573	114.073245127442	141
1	1595	115.678979156967	142
1	1595	115.678979156967	143
1	1631	118.358151830404	144
1	1631	118.358151830404	145
1	1652	119.560629891342	146
1	1652	119.560629891342	147
1	1673	120.994681174423	148
1	1673	120.994681174423	149
1	1703	124.426697836172	150
1	1703	124.426697836172	151
1	1716	126.284426602657	152
1	1716	126.284426602657	153
1	1745	127.675749213801	154
1	1745	127.675749213801	155
1	1760	129.574951861118	156
1	1760	129.574951861118	157
1	1780	131.10739416529	158
1	1780	131.10739416529	159
1	1794	132.4838508115	160
1	1794	132.4838508115	161
1	1819	133.708888311287	162
1	1819	133.708888311287	163
1	1841	135.014489771195	164
1	1841	135.014489771195	165
1	1867	136.911667701512	166
1	1867	136.911667701512	167
1	1891	138.533740259369	168
1	1891	138.533740259369	169
1	1917	139.665506804415	170
1	1917	139.665506804415	171
1	1941	141.670398432668	172
1	1941	141.670398432668	173
1	1964	142.925200594951	174
1	1964	142.925200594951	175
1	1988	144.121676635628	176
1	1988	144.121676635628	177
1	2010	145.312540798927	178
1	2010	145.312540798927	179
1	2035	147.062993525834	180
1	2035	147.062993525834	181
1	2060	148.258828479649	182
1	2060	148.258828479649	183
1	2070	149.802699197707	184
1	2070	149.802699197707	185
1	2096	151.384444962068	186
1	2096	151.384444962068	187
1	2123	154.56432361145	188
1	2123	154.56432361145	189
1	2134	156.024553142529	190
1	2134	156.024553142529	191
1	2158	157.303209054227	192
1	2158	157.303209054227	193
1	2184	158.598344509657	194
1	2184	158.598344509657	195
1	2194	159.726647282664	196
1	2194	159.726647282664	197
1	2216	161.183947780241	198
1	2216	161.183947780241	199
1	2248	162.450471776415	200
1	2248	162.450471776415	201
1	2265	163.91294710944	202
1	2265	163.91294710944	203
1	2286	165.349688838774	204
1	2286	165.349688838774	205
1	2311	167.190354048949	206
1	2311	167.190354048949	207
1	2334	168.474473698315	208
1	2334	168.474473698315	209
1	2358	170.405799131536	210
1	2358	170.405799131536	211
1	2375	173.315228332185	212
1	2375	173.315228332185	213
1	2398	174.759561595109	214
1	2398	174.759561595109	215
1	2419	176.740080054973	216
1	2419	176.740080054973	217
1	2447	178.031370153174	218
1	2447	178.031370153174	219
1	2470	179.44125427738	220
1	2470	179.44125427738	221
1	2495	181.040749417249	222
1	2495	181.040749417249	223
1	2509	182.324505459995	224
1	2509	182.324505459995	225
1	2518	185.381870452428	226
1	2518	185.381870452428	227
1	2539	187.227368478872	228
1	2539	187.227368478872	229
1	2564	189.084468043726	230
1	2564	189.084468043726	231
1	2592	192.420312931502	232
1	2592	192.420312931502	233
1	2613	194.437016592191	234
1	2613	194.437016592191	235
1	2619	196.223566848742	236
1	2619	196.223566848742	237
1	2658	199.280478694582	238
1	2658	199.280478694582	239
1	2680	201.190202569177	240
1	2680	201.190202569177	241
1	2701	203.038760487825	242
1	2701	203.038760487825	243
1	2716	204.970528736231	244
1	2716	204.970528736231	245
1	2737	206.538781224385	246
1	2737	206.538781224385	247
1	2771	207.759007268815	248
1	2771	207.759007268815	249
1	2781	209.098125630531	250
1	2781	209.098125630531	251
1	2802	211.045744180915	252
1	2802	211.045744180915	253
1	2833	212.920825683139	254
1	2833	212.920825683139	255
1	2846	214.493707131492	256
1	2846	214.493707131492	257
1	2861	216.313717871397	258
1	2861	216.313717871397	259
1	2882	218.071389342369	260
1	2882	218.071389342369	261
1	2892	219.591348850248	262
1	2892	219.591348850248	263
1	2913	222.390607830629	264
1	2913	222.390607830629	265
1	2923	223.70346139499	266
1	2923	223.70346139499	267
1	2937	225.579709290809	268
1	2937	225.579709290809	269
1	2972	227.314735261664	270
1	2972	227.314735261664	271
1	2980	228.967536134028	272
1	2980	228.967536134028	273
1	3015	230.602072519305	274
1	3015	230.602072519305	275
1	3025	232.169215470237	276
1	3025	232.169215470237	277
1	3053	234.072771002427	278
1	3053	234.072771002427	279
1	3080	235.448306915799	280
1	3080	235.448306915799	281
1	3108	236.533474678323	282
1	3108	236.533474678323	283
1	3119	237.723407422596	284
1	3119	237.723407422596	285
1	3140	238.946342395457	286
1	3140	238.946342395457	287
2	7	0.127447623789	0
2	7	0.127447623789	1
2	7	0.127447623789	2
2	35	1.307861062436	3
2	35	1.307861062436	4
2	35	1.307861062436	5
2	59	2.82261851653	6
2	59	2.82261851653	7
2	59	2.82261851653	8
2	84	4.397661278829	9
2	84	4.397661278829	10
2	84	4.397661278829	11
2	102	6.372177410334	12
2	102	6.372177410334	13
2	102	6.372177410334	14
2	131	7.857430738482	15
2	131	7.857430738482	16
2	131	7.857430738482	17
2	160	9.806270815809	18
2	160	9.806270815809	19
2	160	9.806270815809	20
2	178	11.123104087211	21
2	178	11.123104087211	22
2	178	11.123104087211	23
2	196	12.774288622191	24
2	196	12.774288622191	25
2	196	12.774288622191	26
2	220	14.427088986421	27
2	220	14.427088986421	28
2	220	14.427088986421	29
2	246	15.798984021072	30
2	246	15.798984021072	31
2	246	15.798984021072	32
2	260	17.383199289158	33
2	260	17.383199289158	34
2	260	17.383199289158	35
2	287	19.029506739717	36
2	287	19.029506739717	37
2	287	19.029506739717	38
2	307	20.373297925561	39
2	307	20.373297925561	40
2	307	20.373297925561	41
2	317	21.371844044889	42
2	317	21.371844044889	43
2	317	21.371844044889	44
2	346	22.460998947012	45
2	346	22.460998947012	46
2	346	22.460998947012	47
2	362	25.599884414173	48
2	362	25.599884414173	49
2	362	25.599884414173	50
2	385	27.106853868478	51
2	385	27.106853868478	52
2	385	27.106853868478	53
2	410	28.131929436031	54
2	410	28.131929436031	55
2	410	28.131929436031	56
2	434	30.084165245221	57
2	434	30.084165245221	58
2	434	30.084165245221	59
2	460	31.317760344773	60
2	460	31.317760344773	61
2	460	31.317760344773	62
2	484	34.350540039423	63
2	484	34.350540039423	64
2	484	34.350540039423	65
2	506	36.189185888897	66
2	506	36.189185888897	67
2	506	36.189185888897	68
2	525	37.310170846115	69
2	525	37.310170846115	70
2	525	37.310170846115	71
2	546	38.754771736449	72
2	546	38.754771736449	73
2	546	38.754771736449	74
2	575	39.833526237001	75
2	575	39.833526237001	76
2	575	39.833526237001	77
2	590	40.872482541725	78
2	590	40.872482541725	79
2	590	40.872482541725	80
2	611	42.299315361513	81
2	611	42.299315361513	82
2	611	42.299315361513	83
2	637	43.40968468626	84
2	637	43.40968468626	85
2	637	43.40968468626	86
2	660	44.712730306953	87
2	660	44.712730306953	88
2	660	44.712730306953	89
2	679	46.457595594152	90
2	679	46.457595594152	91
2	679	46.457595594152	92
2	705	47.793245852866	93
2	705	47.793245852866	94
2	705	47.793245852866	95
2	733	49.420855926946	96
2	733	49.420855926946	97
2	733	49.420855926946	98
2	755	50.884388067957	99
2	755	50.884388067957	100
2	755	50.884388067957	101
2	776	52.257595752083	102
2	776	52.257595752083	103
2	776	52.257595752083	104
2	808	55.44083662186	105
2	808	55.44083662186	106
2	808	55.44083662186	107
2	828	56.777097288762	108
2	828	56.777097288762	109
2	828	56.777097288762	110
2	844	57.817945512492	111
2	844	57.817945512492	112
2	844	57.817945512492	113
2	869	59.654081007261	114
2	869	59.654081007261	115
2	869	59.654081007261	116
2	893	61.264400707197	117
2	893	61.264400707197	118
2	893	61.264400707197	119
2	913	62.791181942688	120
2	913	62.791181942688	121
2	913	62.791181942688	122
2	936	64.614218028306	123
2	936	64.614218028306	124
2	936	64.614218028306	125
2	950	65.599802883289	126
2	950	65.599802883289	127
2	950	65.599802883289	128
2	966	67.120950623646	129
2	966	67.120950623646	130
2	966	67.120950623646	131
2	992	68.568240706995	132
2	992	68.568240706995	133
2	992	68.568240706995	134
2	1014	69.854223836263	135
2	1014	69.854223836263	136
2	1014	69.854223836263	137
2	1042	71.707832503853	138
2	1042	71.707832503853	139
2	1042	71.707832503853	140
2	1069	74.97279143342	141
2	1069	74.97279143342	142
2	1069	74.97279143342	143
2	1083	76.796336949973	144
2	1083	76.796336949973	145
2	1083	76.796336949973	146
2	1105	77.874884465388	147
2	1105	77.874884465388	148
2	1105	77.874884465388	149
2	1130	79.202011525106	150
2	1130	79.202011525106	151
2	1130	79.202011525106	152
2	1160	80.50780341878	153
2	1160	80.50780341878	154
2	1160	80.50780341878	155
2	1185	81.954749502874	156
2	1185	81.954749502874	157
2	1185	81.954749502874	158
2	1210	83.559410576712	159
2	1210	83.559410576712	160
2	1210	83.559410576712	161
2	1225	85.097870766773	162
2	1225	85.097870766773	163
2	1225	85.097870766773	164
2	1249	86.409107698491	165
2	1249	86.409107698491	166
2	1249	86.409107698491	167
2	1274	88.055095268361	168
2	1274	88.055095268361	169
2	1274	88.055095268361	170
2	1288	89.144852427348	171
2	1288	89.144852427348	172
2	1288	89.144852427348	173
2	1313	90.45201823123	174
2	1313	90.45201823123	175
2	1313	90.45201823123	176
2	1336	93.231954410633	177
2	1336	93.231954410633	178
2	1336	93.231954410633	179
2	1355	95.072049935438	180
2	1355	95.072049935438	181
2	1355	95.072049935438	182
2	1366	96.089325902367	183
2	1366	96.089325902367	184
2	1366	96.089325902367	185
2	1391	97.932121769066	186
2	1391	97.932121769066	187
2	1391	97.932121769066	188
2	1427	101.356201385585	189
2	1427	101.356201385585	190
2	1427	101.356201385585	191
2	1449	104.826353031198	192
2	1449	104.826353031198	193
2	1449	104.826353031198	194
2	1463	106.426440874765	195
2	1463	106.426440874765	196
2	1463	106.426440874765	197
2	1493	107.601494042694	198
2	1493	107.601494042694	199
2	1493	107.601494042694	200
2	1515	109.514175259524	201
2	1515	109.514175259524	202
2	1515	109.514175259524	203
2	1532	111.033086032157	204
2	1532	111.033086032157	205
2	1532	111.033086032157	206
2	1559	112.124965907928	207
2	1559	112.124965907928	208
2	1559	112.124965907928	209
2	1580	114.087621350564	210
2	1580	114.087621350564	211
2	1580	114.087621350564	212
2	1601	115.694654210572	213
2	1601	115.694654210572	214
2	1601	115.694654210572	215
2	1626	118.34759358986	216
2	1626	118.34759358986	217
2	1626	118.34759358986	218
2	1651	119.559632303199	219
2	1651	119.559632303199	220
2	1651	119.559632303199	221
2	1676	121.007827170696	222
2	1676	121.007827170696	223
2	1676	121.007827170696	224
2	1698	124.408854443076	225
2	1698	124.408854443076	226
2	1698	124.408854443076	227
2	1720	126.296466193574	228
2	1720	126.296466193574	229
2	1720	126.296466193574	230
2	1741	127.664147653638	231
2	1741	127.664147653638	232
2	1741	127.664147653638	233
2	1767	129.588526480309	234
2	1767	129.588526480309	235
2	1767	129.588526480309	236
2	1783	131.132318505635	237
2	1783	131.132318505635	238
2	1783	131.132318505635	239
2	1798	132.504021925398	240
2	1798	132.504021925398	241
2	1798	132.504021925398	242
2	1822	133.720718020712	243
2	1822	133.720718020712	244
2	1822	133.720718020712	245
2	1852	135.049794920285	246
2	1852	135.049794920285	247
2	1852	135.049794920285	248
2	1874	136.927587819558	249
2	1874	136.927587819558	250
2	1874	136.927587819558	251
2	1898	138.552922750712	252
2	1898	138.552922750712	253
2	1898	138.552922750712	254
2	1921	139.67204813694	255
2	1921	139.67204813694	256
2	1921	139.67204813694	257
2	1949	141.689905013475	258
2	1949	141.689905013475	259
2	1949	141.689905013475	260
2	1970	142.941918780715	261
2	1970	142.941918780715	262
2	1970	142.941918780715	263
2	1991	144.136122647882	264
2	1991	144.136122647882	265
2	1991	144.136122647882	266
2	2014	145.324149428955	267
2	2014	145.324149428955	268
2	2014	145.324149428955	269
2	2042	147.084420884394	270
2	2042	147.084420884394	271
2	2042	147.084420884394	272
2	2063	148.273403046359	273
2	2063	148.273403046359	274
2	2063	148.273403046359	275
2	2073	149.81665474591	276
2	2073	149.81665474591	277
2	2073	149.81665474591	278
2	2102	151.39448781511	279
2	2102	151.39448781511	280
2	2102	151.39448781511	281
2	2126	154.574510736359	282
2	2126	154.574510736359	283
2	2126	154.574510736359	284
2	2138	156.034398911603	285
2	2138	156.034398911603	286
2	2138	156.034398911603	287
2	2165	157.322252819766	288
2	2165	157.322252819766	289
2	2165	157.322252819766	290
2	2180	158.584003143407	291
2	2180	158.584003143407	292
2	2180	158.584003143407	293
2	2205	159.760420400545	294
2	2205	159.760420400545	295
2	2205	159.760420400545	296
2	2227	161.222188640302	297
2	2227	161.222188640302	298
2	2227	161.222188640302	299
2	2244	162.439676778272	300
2	2244	162.439676778272	301
2	2244	162.439676778272	302
2	2276	163.94379991347	303
2	2276	163.94379991347	304
2	2276	163.94379991347	305
2	2297	165.396270734483	306
2	2297	165.396270734483	307
2	2297	165.396270734483	308
2	2315	167.210733773585	309
2	2315	167.210733773585	310
2	2315	167.210733773585	311
2	2341	168.485581052713	312
2	2341	168.485581052713	313
2	2341	168.485581052713	314
2	2365	170.421464312598	315
2	2365	170.421464312598	316
2	2365	170.421464312598	317
2	2378	173.329458698092	318
2	2378	173.329458698092	319
2	2378	173.329458698092	320
2	2408	174.783589224841	321
2	2408	174.783589224841	322
2	2408	174.783589224841	323
2	2422	176.751890520495	324
2	2422	176.751890520495	325
2	2422	176.751890520495	326
2	2446	178.030784461227	327
2	2446	178.030784461227	328
2	2446	178.030784461227	329
2	2473	179.459992809466	330
2	2473	179.459992809466	331
2	2473	179.459992809466	332
2	2497	181.04845666083	333
2	2497	181.04845666083	334
2	2497	181.04845666083	335
2	2522	185.393101499402	336
2	2522	185.393101499402	337
2	2522	185.393101499402	338
2	2542	187.243407280058	339
2	2542	187.243407280058	340
2	2542	187.243407280058	341
2	2567	189.094702465352	342
2	2567	189.094702465352	343
2	2567	189.094702465352	344
2	2607	194.420908070672	345
2	2607	194.420908070672	346
2	2607	194.420908070672	347
2	2622	196.235003627134	348
2	2622	196.235003627134	349
2	2622	196.235003627134	350
2	2661	199.297618682489	351
2	2661	199.297618682489	352
2	2661	199.297618682489	353
2	2688	201.226999386469	354
2	2688	201.226999386469	355
2	2688	201.226999386469	356
2	2705	203.051036618779	357
2	2705	203.051036618779	358
2	2705	203.051036618779	359
2	2723	204.983302411035	360
2	2723	204.983302411035	361
2	2723	204.983302411035	362
2	2740	206.54905022726	363
2	2740	206.54905022726	364
2	2740	206.54905022726	365
2	2764	207.747838630952	366
2	2764	207.747838630952	367
2	2764	207.747838630952	368
2	2785	209.116386925224	369
2	2785	209.116386925224	370
2	2785	209.116386925224	371
2	2805	211.063150580219	372
2	2805	211.063150580219	373
2	2805	211.063150580219	374
2	2829	212.91116436877	375
2	2829	212.91116436877	376
2	2829	212.91116436877	377
2	2849	214.504060248743	378
2	2849	214.504060248743	379
2	2849	214.504060248743	380
2	2871	216.338248523878	381
2	2871	216.338248523878	382
2	2871	216.338248523878	383
2	2896	219.611950985019	384
2	2896	219.611950985019	385
2	2896	219.611950985019	386
2	2925	223.709478173621	387
2	2925	223.709478173621	388
2	2925	223.709478173621	389
2	2941	225.590840227486	390
2	2941	225.590840227486	391
2	2941	225.590840227486	392
2	2963	227.2704781631	393
2	2963	227.2704781631	394
2	2963	227.2704781631	395
2	2987	228.994625321595	396
2	2987	228.994625321595	397
2	2987	228.994625321595	398
2	3007	230.579296574173	399
2	3007	230.579296574173	400
2	3007	230.579296574173	401
2	3031	232.192713546368	402
2	3031	232.192713546368	403
2	3031	232.192713546368	404
2	3054	234.077293956184	405
2	3054	234.077293956184	406
2	3054	234.077293956184	407
2	3075	235.43568056297	408
2	3075	235.43568056297	409
2	3075	235.43568056297	410
2	3104	236.52051820131	411
2	3104	236.52051820131	412
2	3104	236.52051820131	413
2	3125	237.733499972546	414
2	3125	237.733499972546	415
2	3125	237.733499972546	416
2	3148	238.967129657864	417
2	3148	238.967129657864	418
2	3148	238.967129657864	419
3	11	0.141312140479	0
3	11	0.141312140479	1
3	11	0.141312140479	2
3	29	1.289959914142	3
3	29	1.289959914142	4
3	29	1.289959914142	5
3	54	2.804007399895	6
3	54	2.804007399895	7
3	54	2.804007399895	8
3	76	4.368536842005	9
3	76	4.368536842005	10
3	76	4.368536842005	11
3	98	6.361320797401	12
3	98	6.361320797401	13
3	98	6.361320797401	14
3	120	7.832950748649	15
3	120	7.832950748649	16
3	120	7.832950748649	17
3	145	9.770159754718	18
3	145	9.770159754718	19
3	145	9.770159754718	20
3	167	11.095595915262	21
3	167	11.095595915262	22
3	167	11.095595915262	23
3	189	12.755311567974	24
3	189	12.755311567974	25
3	189	12.755311567974	26
3	214	14.412838868677	27
3	214	14.412838868677	28
3	214	14.412838868677	29
3	239	15.785734483758	30
3	239	15.785734483758	31
3	239	15.785734483758	32
3	264	17.39653663033	33
3	264	17.39653663033	34
3	264	17.39653663033	35
3	282	19.00139623718	36
3	282	19.00139623718	37
3	282	19.00139623718	38
3	329	21.413869157262	39
3	329	21.413869157262	40
3	329	21.413869157262	41
3	339	22.447088010238	42
3	339	22.447088010238	43
3	339	22.447088010238	44
3	363	25.60595330159	45
3	363	25.60595330159	46
3	363	25.60595330159	47
3	384	27.105534497275	48
3	384	27.105534497275	49
3	384	27.105534497275	50
3	406	28.117681455891	51
3	406	28.117681455891	52
3	406	28.117681455891	53
3	439	30.102584978289	54
3	439	30.102584978289	55
3	439	30.102584978289	56
3	454	31.281520373106	57
3	454	31.281520373106	58
3	454	31.281520373106	59
3	496	34.398160590002	60
3	496	34.398160590002	61
3	496	34.398160590002	62
3	510	36.206872001311	63
3	510	36.206872001311	64
3	510	36.206872001311	65
3	522	37.305204497799	66
3	522	37.305204497799	67
3	522	37.305204497799	68
3	551	38.774160427492	69
3	551	38.774160427492	70
3	551	38.774160427492	71
3	568	39.815597456034	72
3	568	39.815597456034	73
3	568	39.815597456034	74
3	583	40.856948745432	75
3	583	40.856948745432	76
3	583	40.856948745432	77
3	607	42.287886317903	78
3	607	42.287886317903	79
3	607	42.287886317903	80
3	632	43.387864731187	81
3	632	43.387864731187	82
3	632	43.387864731187	83
3	654	44.698499412419	84
3	654	44.698499412419	85
3	654	44.698499412419	86
3	680	46.464881396752	87
3	680	46.464881396752	88
3	680	46.464881396752	89
3	702	47.785667308162	90
3	702	47.785667308162	91
3	702	47.785667308162	92
3	727	49.40057837048	93
3	727	49.40057837048	94
3	727	49.40057837048	95
3	751	50.870697571332	96
3	751	50.870697571332	97
3	751	50.870697571332	98
3	769	52.244922691211	99
3	769	52.244922691211	100
3	769	52.244922691211	101
3	794	54.213139113788	102
3	794	54.213139113788	103
3	794	54.213139113788	104
3	801	55.424708790277	105
3	801	55.424708790277	106
3	801	55.424708790277	107
3	823	56.765103405114	108
3	823	56.765103405114	109
3	823	56.765103405114	110
3	852	57.859769521081	111
3	852	57.859769521081	112
3	852	57.859769521081	113
3	873	59.669952774237	114
3	873	59.669952774237	115
3	873	59.669952774237	116
3	888	61.246486182439	117
3	888	61.246486182439	118
3	888	61.246486182439	119
3	906	62.77080968175	120
3	906	62.77080968175	121
3	906	62.77080968175	122
3	931	64.603840097885	123
3	931	64.603840097885	124
3	931	64.603840097885	125
3	945	65.58701253069	126
3	945	65.58701253069	127
3	945	65.58701253069	128
3	971	67.139606646461	129
3	971	67.139606646461	130
3	971	67.139606646461	131
3	989	68.561865747796	132
3	989	68.561865747796	133
3	989	68.561865747796	134
3	1009	69.839188943715	135
3	1009	69.839188943715	136
3	1009	69.839188943715	137
3	1034	71.667955759554	138
3	1034	71.667955759554	139
3	1034	71.667955759554	140
3	1065	74.961707233974	141
3	1065	74.961707233974	142
3	1065	74.961707233974	143
3	1084	76.796833416699	144
3	1084	76.796833416699	145
3	1084	76.796833416699	146
3	1118	77.922162570014	147
3	1118	77.922162570014	148
3	1118	77.922162570014	149
3	1134	79.214644343391	150
3	1134	79.214644343391	151
3	1134	79.214644343391	152
3	1153	80.489127379007	153
3	1153	80.489127379007	154
3	1153	80.489127379007	155
3	1177	81.935815133059	156
3	1177	81.935815133059	157
3	1177	81.935815133059	158
3	1202	83.515812084159	159
3	1202	83.515812084159	160
3	1202	83.515812084159	161
3	1224	85.089764559419	162
3	1224	85.089764559419	163
3	1224	85.089764559419	164
3	1262	86.45097296294	165
3	1262	86.45097296294	166
3	1262	86.45097296294	167
3	1282	89.132372693003	168
3	1282	89.132372693003	169
3	1282	89.132372693003	170
3	1309	90.437595210131	171
3	1309	90.437595210131	172
3	1309	90.437595210131	173
3	1323	93.186458016256	174
3	1323	93.186458016256	175
3	1323	93.186458016256	176
3	1348	95.044721788383	177
3	1348	95.044721788383	178
3	1348	95.044721788383	179
3	1362	96.076734384288	180
3	1362	96.076734384288	181
3	1362	96.076734384288	182
3	1387	97.920342349113	183
3	1387	97.920342349113	184
3	1387	97.920342349113	185
3	1406	99.452281691974	186
3	1406	99.452281691974	187
3	1406	99.452281691974	188
3	1421	101.343732825635	189
3	1421	101.343732825635	190
3	1421	101.343732825635	191
3	1445	104.802085258914	192
3	1445	104.802085258914	193
3	1445	104.802085258914	194
3	1468	106.444963344099	195
3	1468	106.444963344099	196
3	1468	106.444963344099	197
3	1485	107.577774901479	198
3	1485	107.577774901479	199
3	1485	107.577774901479	200
3	1510	109.492854586829	201
3	1510	109.492854586829	202
3	1510	109.492854586829	203
3	1536	111.044900187933	204
3	1536	111.044900187933	205
3	1536	111.044900187933	206
3	1552	112.103780267465	207
3	1552	112.103780267465	208
3	1552	112.103780267465	209
3	1574	114.074754478143	210
3	1574	114.074754478143	211
3	1574	114.074754478143	212
3	1594	115.675641271419	213
3	1594	115.675641271419	214
3	1594	115.675641271419	215
3	1622	118.334173645338	216
3	1622	118.334173645338	217
3	1622	118.334173645338	218
3	1647	119.548133504634	219
3	1647	119.548133504634	220
3	1647	119.548133504634	221
3	1669	120.9844078351	222
3	1669	120.9844078351	223
3	1669	120.9844078351	224
3	1694	124.394806357027	225
3	1694	124.394806357027	226
3	1694	124.394806357027	227
3	1717	126.290645099723	228
3	1717	126.290645099723	229
3	1717	126.290645099723	230
3	1737	127.652673428525	231
3	1737	127.652673428525	232
3	1737	127.652673428525	233
3	1759	129.574316678065	234
3	1759	129.574316678065	235
3	1759	129.574316678065	236
3	1787	131.142559768587	237
3	1787	131.142559768587	238
3	1787	131.142559768587	239
3	1797	132.495584638354	240
3	1797	132.495584638354	241
3	1797	132.495584638354	242
3	1823	133.728496559141	243
3	1823	133.728496559141	244
3	1823	133.728496559141	245
3	1844	135.025694528186	246
3	1844	135.025694528186	247
3	1844	135.025694528186	248
3	1866	136.910667193267	249
3	1866	136.910667193267	250
3	1866	136.910667193267	251
3	1892	138.537944186436	252
3	1892	138.537944186436	253
3	1892	138.537944186436	254
3	1916	139.660641924314	255
3	1916	139.660641924314	256
3	1916	139.660641924314	257
3	1942	141.671438387496	258
3	1942	141.671438387496	259
3	1942	141.671438387496	260
3	1963	142.923990164062	261
3	1963	142.923990164062	262
3	1963	142.923990164062	263
3	1992	144.145440078116	264
3	1992	144.145440078116	265
3	1992	144.145440078116	266
3	2011	145.317676499348	267
3	2011	145.317676499348	268
3	2011	145.317676499348	269
3	2036	147.068755711259	270
3	2036	147.068755711259	271
3	2036	147.068755711259	272
3	2082	149.841152162217	273
3	2082	149.841152162217	274
3	2082	149.841152162217	275
3	2095	151.375455025992	276
3	2095	151.375455025992	277
3	2095	151.375455025992	278
3	2133	156.018394746946	279
3	2133	156.018394746946	280
3	2133	156.018394746946	281
3	2159	157.311592533092	282
3	2159	157.311592533092	283
3	2159	157.311592533092	284
3	2172	158.561113982721	285
3	2172	158.561113982721	286
3	2172	158.561113982721	287
3	2195	159.730911996807	288
3	2195	159.730911996807	289
3	2195	159.730911996807	290
3	2215	161.183256076571	291
3	2215	161.183256076571	292
3	2215	161.183256076571	293
3	2240	162.415436286006	294
3	2240	162.415436286006	295
3	2240	162.415436286006	296
3	2266	163.913894169143	297
3	2266	163.913894169143	298
3	2266	163.913894169143	299
3	2287	165.354849909292	300
3	2287	165.354849909292	301
3	2287	165.354849909292	302
3	2314	167.210423618094	303
3	2314	167.210423618094	304
3	2314	167.210423618094	305
3	2333	168.471239999567	306
3	2333	168.471239999567	307
3	2333	168.471239999567	308
3	2359	170.40980170927	309
3	2359	170.40980170927	310
3	2359	170.40980170927	311
3	2382	173.341429257911	312
3	2382	173.341429257911	313
3	2382	173.341429257911	314
3	2397	174.753844667477	315
3	2397	174.753844667477	316
3	2397	174.753844667477	317
3	2423	176.757580881024	318
3	2423	176.757580881024	319
3	2423	176.757580881024	320
3	2441	178.011514131892	321
3	2441	178.011514131892	322
3	2441	178.011514131892	323
3	2466	179.429395475109	324
3	2466	179.429395475109	325
3	2466	179.429395475109	326
3	2491	181.022384021376	327
3	2491	181.022384021376	328
3	2491	181.022384021376	329
3	2519	185.387557701939	330
3	2519	185.387557701939	331
3	2519	185.387557701939	332
3	2547	187.258629507541	333
3	2547	187.258629507541	334
3	2547	187.258629507541	335
3	2572	189.110090828085	336
3	2572	189.110090828085	337
3	2572	189.110090828085	338
3	2598	194.395218218747	339
3	2598	194.395218218747	340
3	2598	194.395218218747	341
3	2623	196.243833816411	342
3	2623	196.243833816411	343
3	2623	196.243833816411	344
3	2644	198.213257609005	345
3	2644	198.213257609005	346
3	2644	198.213257609005	347
3	2665	199.319732866984	348
3	2665	199.319732866984	349
3	2665	199.319732866984	350
3	2683	201.204283410833	351
3	2683	201.204283410833	352
3	2683	201.204283410833	353
3	2702	203.041187579674	354
3	2702	203.041187579674	355
3	2702	203.041187579674	356
3	2715	204.96607051389	357
3	2715	204.96607051389	358
3	2715	204.96607051389	359
3	2741	206.55151915338	360
3	2741	206.55151915338	361
3	2741	206.55151915338	362
3	2759	207.723328141059	363
3	2759	207.723328141059	364
3	2759	207.723328141059	365
3	2782	209.106793750689	366
3	2782	209.106793750689	367
3	2782	209.106793750689	368
3	2817	211.126093860492	369
3	2817	211.126093860492	370
3	2817	211.126093860492	371
3	2824	212.896189397265	372
3	2824	212.896189397265	373
3	2824	212.896189397265	374
3	2860	216.305453178653	375
3	2860	216.305453178653	376
3	2860	216.305453178653	377
3	2888	219.579799603749	378
3	2888	219.579799603749	379
3	2888	219.579799603749	380
3	2919	223.690765286504	381
3	2919	223.690765286504	382
3	2919	223.690765286504	383
3	2938	225.581414595445	384
3	2938	225.581414595445	385
3	2938	225.581414595445	386
3	2959	227.259162801779	387
3	2959	227.259162801779	388
3	2959	227.259162801779	389
3	2983	228.983792897541	390
3	2983	228.983792897541	391
3	2983	228.983792897541	392
3	3002	230.537217632934	393
3	3002	230.537217632934	394
3	3002	230.537217632934	395
3	3024	232.167458388433	396
3	3024	232.167458388433	397
3	3024	232.167458388433	398
3	3049	234.057109585868	399
3	3049	234.057109585868	400
3	3049	234.057109585868	401
3	3071	235.418101591334	402
3	3071	235.418101591334	403
3	3071	235.418101591334	404
3	3096	236.498128964335	405
3	3096	236.498128964335	406
3	3096	236.498128964335	407
3	3118	237.716109927996	408
3	3118	237.716109927996	409
3	3118	237.716109927996	410
3	3141	238.947045176108	411
3	3141	238.947045176108	412
3	3141	238.947045176108	413
4	15	0.152589912208	0
4	15	0.152589912208	1
4	15	0.152589912208	2
4	34	1.305190715394	3
4	34	1.305190715394	4
4	34	1.305190715394	5
4	58	2.815844504877	6
4	58	2.815844504877	7
4	58	2.815844504877	8
4	80	4.385660669639	9
4	80	4.385660669639	10
4	80	4.385660669639	11
4	104	6.37588326267	12
4	104	6.37588326267	13
4	104	6.37588326267	14
4	125	7.844804716803	15
4	125	7.844804716803	16
4	125	7.844804716803	17
4	150	9.780215353202	18
4	150	9.780215353202	19
4	150	9.780215353202	20
4	174	11.110901887269	21
4	174	11.110901887269	22
4	174	11.110901887269	23
4	197	12.780737412727	24
4	197	12.780737412727	25
4	197	12.780737412727	26
4	218	14.425901111579	27
4	218	14.425901111579	28
4	218	14.425901111579	29
4	250	15.823262037782	30
4	250	15.823262037782	31
4	250	15.823262037782	32
4	268	17.412912049601	33
4	268	17.412912049601	34
4	268	17.412912049601	35
4	286	19.024138331099	36
4	286	19.024138331099	37
4	286	19.024138331099	38
4	325	21.395021861561	39
4	325	21.395021861561	40
4	325	21.395021861561	41
4	371	25.619431072834	42
4	371	25.619431072834	43
4	371	25.619431072834	44
4	389	27.11623588154	45
4	389	27.11623588154	46
4	389	27.11623588154	47
4	411	28.13542899024	48
4	411	28.13542899024	49
4	411	28.13542899024	50
4	443	30.108879843593	51
4	443	30.108879843593	52
4	443	30.108879843593	53
4	464	31.335185730002	54
4	464	31.335185730002	55
4	464	31.335185730002	56
4	492	34.385333597047	57
4	492	34.385333597047	58
4	492	34.385333597047	59
4	514	36.217697540115	60
4	514	36.217697540115	61
4	514	36.217697540115	62
4	529	37.31930364228	63
4	529	37.31930364228	64
4	529	37.31930364228	65
4	558	38.788214559438	66
4	558	38.788214559438	67
4	558	38.788214559438	68
4	589	40.869969531067	69
4	589	40.869969531067	70
4	589	40.869969531067	71
4	612	42.301900902913	72
4	612	42.301900902913	73
4	612	42.301900902913	74
4	636	43.405502610186	75
4	636	43.405502610186	76
4	636	43.405502610186	77
4	659	44.710764016045	78
4	659	44.710764016045	79
4	659	44.710764016045	80
4	691	46.486569122577	81
4	691	46.486569122577	82
4	691	46.486569122577	83
4	709	47.796200199452	84
4	709	47.796200199452	85
4	709	47.796200199452	86
4	734	49.425986721806	87
4	734	49.425986721806	88
4	734	49.425986721806	89
4	756	50.893186992615	90
4	756	50.893186992615	91
4	756	50.893186992615	92
4	777	52.258482603968	93
4	777	52.258482603968	94
4	777	52.258482603968	95
4	809	55.44278149985	96
4	809	55.44278149985	97
4	809	55.44278149985	98
4	827	56.776031680173	99
4	827	56.776031680173	100
4	827	56.776031680173	101
4	856	57.870807028223	102
4	856	57.870807028223	103
4	856	57.870807028223	104
4	878	59.68041077371	105
4	878	59.68041077371	106
4	878	59.68041077371	107
4	892	61.262948603589	108
4	892	61.262948603589	109
4	892	61.262948603589	110
4	914	62.797006029052	111
4	914	62.797006029052	112
4	914	62.797006029052	113
4	949	65.597536558297	114
4	949	65.597536558297	115
4	949	65.597536558297	116
4	975	67.148363855367	117
4	975	67.148363855367	118
4	975	67.148363855367	119
4	996	68.57641745865	120
4	996	68.57641745865	121
4	996	68.57641745865	122
4	1015	69.860246435972	123
4	1015	69.860246435972	124
4	1015	69.860246435972	125
4	1038	71.678383644558	126
4	1038	71.678383644558	127
4	1038	71.678383644558	128
4	1070	74.978137577086	129
4	1070	74.978137577086	130
4	1070	74.978137577086	131
4	1091	76.818945481494	132
4	1091	76.818945481494	133
4	1091	76.818945481494	134
4	1113	77.908874879293	135
4	1113	77.908874879293	136
4	1113	77.908874879293	137
4	1138	79.234449638207	138
4	1138	79.234449638207	139
4	1138	79.234449638207	140
4	1159	80.499183257983	141
4	1159	80.499183257983	142
4	1159	80.499183257983	143
4	1184	81.950756314612	144
4	1184	81.950756314612	145
4	1184	81.950756314612	146
4	1206	83.534425455665	147
4	1206	83.534425455665	148
4	1206	83.534425455665	149
4	1236	85.12090194878	150
4	1236	85.12090194878	151
4	1236	85.12090194878	152
4	1257	86.435787769909	153
4	1257	86.435787769909	154
4	1257	86.435787769909	155
4	1289	89.154740022863	156
4	1289	89.154740022863	157
4	1289	89.154740022863	158
4	1330	93.209644150048	159
4	1330	93.209644150048	160
4	1330	93.209644150048	161
4	1367	96.092938536991	162
4	1367	96.092938536991	163
4	1367	96.092938536991	164
4	1392	97.932350686647	165
4	1392	97.932350686647	166
4	1392	97.932350686647	167
4	1410	99.46906450394	168
4	1410	99.46906450394	169
4	1410	99.46906450394	170
4	1431	101.367185679303	171
4	1431	101.367185679303	172
4	1431	101.367185679303	173
4	1475	106.47018956096	174
4	1475	106.47018956096	175
4	1475	106.47018956096	176
4	1489	107.59118418738	177
4	1489	107.59118418738	178
4	1489	107.59118418738	179
4	1514	109.507202661375	180
4	1514	109.507202661375	181
4	1514	109.507202661375	182
4	1540	111.061052631508	183
4	1540	111.061052631508	184
4	1540	111.061052631508	185
4	1558	112.11648606032	186
4	1558	112.11648606032	187
4	1558	112.11648606032	188
4	1581	114.090507741668	189
4	1581	114.090507741668	190
4	1581	114.090507741668	191
4	1602	115.696807681629	192
4	1602	115.696807681629	193
4	1602	115.696807681629	194
4	1627	118.34929247284	195
4	1627	118.34929247284	196
4	1627	118.34929247284	197
4	1658	119.58374582996	198
4	1658	119.58374582996	199
4	1658	119.58374582996	200
4	1677	121.009877085731	201
4	1677	121.009877085731	202
4	1677	121.009877085731	203
4	1709	124.444829540886	204
4	1709	124.444829540886	205
4	1709	124.444829540886	206
4	1727	126.306618724396	207
4	1727	126.306618724396	208
4	1727	126.306618724396	209
4	1752	127.693861879345	210
4	1752	127.693861879345	211
4	1752	127.693861879345	212
4	1766	129.585435636837	213
4	1766	129.585435636837	214
4	1766	129.585435636837	215
4	1805	132.531478788382	216
4	1805	132.531478788382	217
4	1805	132.531478788382	218
4	1834	133.74253900256	219
4	1834	133.74253900256	220
4	1834	133.74253900256	221
4	1848	135.036654795984	222
4	1848	135.036654795984	223
4	1848	135.036654795984	224
4	1873	136.922339119767	225
4	1873	136.922339119767	226
4	1873	136.922339119767	227
4	1903	138.566718756032	228
4	1903	138.566718756032	229
4	1903	138.566718756032	230
4	1924	139.680456097801	231
4	1924	139.680456097801	232
4	1924	139.680456097801	233
4	1948	141.683638351697	234
4	1948	141.683638351697	235
4	1948	141.683638351697	236
4	1978	142.975207613904	237
4	1978	142.975207613904	238
4	1978	142.975207613904	239
4	1999	144.170756345097	240
4	1999	144.170756345097	241
4	1999	144.170756345097	242
4	2018	145.332147540892	243
4	2018	145.332147540892	244
4	2018	145.332147540892	245
4	2043	147.0871150134	246
4	2043	147.0871150134	247
4	2043	147.0871150134	248
4	2081	149.838188317467	249
4	2081	149.838188317467	250
4	2081	149.838188317467	251
4	2110	151.444064951048	252
4	2110	151.444064951048	253
4	2110	151.444064951048	254
4	2141	156.039159527776	255
4	2141	156.039159527776	256
4	2141	156.039159527776	257
4	2176	158.571419013322	258
4	2176	158.571419013322	259
4	2176	158.571419013322	260
4	2201	159.747946892948	261
4	2201	159.747946892948	262
4	2201	159.747946892948	263
4	2222	161.205741007484	264
4	2222	161.205741007484	265
4	2222	161.205741007484	266
4	2255	162.48836562495	267
4	2255	162.48836562495	268
4	2255	162.48836562495	269
4	2272	163.924087855074	270
4	2272	163.924087855074	271
4	2272	163.924087855074	272
4	2293	165.380200766552	273
4	2293	165.380200766552	274
4	2293	165.380200766552	275
4	2322	167.221537557121	276
4	2322	167.221537557121	277
4	2322	167.221537557121	278
4	2338	168.482441132993	279
4	2338	168.482441132993	280
4	2338	168.482441132993	281
4	2386	173.354549503989	282
4	2386	173.354549503989	283
4	2386	173.354549503989	284
4	2404	174.770333092972	285
4	2404	174.770333092972	286
4	2404	174.770333092972	287
4	2434	176.805274878006	288
4	2434	176.805274878006	289
4	2434	176.805274878006	290
4	2445	178.024863942929	291
4	2445	178.024863942929	292
4	2445	178.024863942929	293
4	2474	179.465006488025	294
4	2474	179.465006488025	295
4	2474	179.465006488025	296
4	2496	181.046269152854	297
4	2496	181.046269152854	298
4	2496	181.046269152854	299
4	2529	185.439045564926	300
4	2529	185.439045564926	301
4	2529	185.439045564926	302
4	2554	187.274904975965	303
4	2554	187.274904975965	304
4	2554	187.274904975965	305
4	2579	189.141518261553	306
4	2579	189.141518261553	307
4	2579	189.141518261553	308
4	2602	194.407090991544	309
4	2602	194.407090991544	310
4	2602	194.407090991544	311
4	2631	196.256858849563	312
4	2631	196.256858849563	313
4	2631	196.256858849563	314
4	2648	198.224913165913	315
4	2648	198.224913165913	316
4	2648	198.224913165913	317
4	2669	199.355927855315	318
4	2669	199.355927855315	319
4	2669	199.355927855315	320
4	2687	201.225880107872	321
4	2687	201.225880107872	322
4	2687	201.225880107872	323
4	2722	204.981028833316	324
4	2722	204.981028833316	325
4	2722	204.981028833316	326
4	2748	206.564253913196	327
4	2748	206.564253913196	328
4	2748	206.564253913196	329
4	2763	207.742137128017	330
4	2763	207.742137128017	331
4	2763	207.742137128017	332
4	2789	209.125182223334	333
4	2789	209.125182223334	334
4	2789	209.125182223334	335
4	2813	211.092510503743	336
4	2813	211.092510503743	337
4	2813	211.092510503743	338
4	2828	212.907810149205	339
4	2828	212.907810149205	340
4	2828	212.907810149205	341
4	2867	216.327505498471	342
4	2867	216.327505498471	343
4	2867	216.327505498471	344
4	2895	219.60830357945	345
4	2895	219.60830357945	346
4	2895	219.60830357945	347
4	2924	223.708111956655	348
4	2924	223.708111956655	349
4	2924	223.708111956655	350
4	2945	225.592322843603	351
4	2945	225.592322843603	352
4	2945	225.592322843603	353
4	2964	227.273067062932	354
4	2964	227.273067062932	355
4	2964	227.273067062932	356
4	2988	229.002450611063	357
4	2988	229.002450611063	358
4	2988	229.002450611063	359
4	3006	230.569902971423	360
4	3006	230.569902971423	361
4	3006	230.569902971423	362
4	3039	232.238713598495	363
4	3039	232.238713598495	364
4	3039	232.238713598495	365
4	3064	234.123533537743	366
4	3064	234.123533537743	367
4	3064	234.123533537743	368
4	3079	235.446515169643	369
4	3079	235.446515169643	370
4	3079	235.446515169643	371
4	3100	236.510454507394	372
4	3100	236.510454507394	373
4	3100	236.510454507394	374
4	3133	237.781078022536	375
4	3133	237.781078022536	376
4	3133	237.781078022536	377
4	3147	238.957943372361	378
4	3147	238.957943372361	379
4	3147	238.957943372361	380
5	19	0.165693651864	0
5	19	0.165693651864	1
5	45	1.322227663286	2
5	45	1.322227663286	3
5	132	7.85870369909	4
5	132	7.85870369909	5
5	208	12.81105663019	6
5	208	12.81105663019	7
5	229	14.462371589364	8
5	229	14.462371589364	9
5	276	17.443291869212	10
5	276	17.443291869212	11
5	333	21.453285329657	12
5	333	21.453285329657	13
5	400	27.1510907036	14
5	400	27.1510907036	15
5	419	28.157225658586	16
5	419	28.157225658586	17
5	562	38.805815657139	18
5	562	38.805815657139	19
5	598	40.882840615943	20
5	598	40.882840615943	21
5	621	42.317228490986	22
5	621	42.317228490986	23
5	695	46.517796701679	24
5	695	46.517796701679	25
5	716	47.813929877598	26
5	716	47.813929877598	27
5	741	49.437041638965	28
5	741	49.437041638965	29
5	784	52.283088507275	30
5	784	52.283088507275	31
5	860	57.958319052176	32
5	860	57.958319052176	33
5	921	62.817665553343	34
5	921	62.817665553343	35
5	982	67.191295816628	36
5	982	67.191295816628	37
5	1003	68.588697462971	38
5	1003	68.588697462971	39
5	1025	69.872440693873	40
5	1025	69.872440693873	41
5	1117	77.922011200624	42
5	1117	77.922011200624	43
5	1142	79.247428280024	44
5	1142	79.247428280024	45
5	1164	80.514914605991	46
5	1164	80.514914605991	47
5	1189	81.964335667847	48
5	1189	81.964335667847	49
5	1240	85.135340089376	50
5	1240	85.135340089376	51
5	1261	86.448613752414	52
5	1261	86.448613752414	53
5	1300	89.181312833556	54
5	1300	89.181312833556	55
5	1335	93.225528722532	56
5	1335	93.225528722532	57
5	1414	99.486683438058	58
5	1414	99.486683438058	59
5	1479	106.485531101472	60
5	1479	106.485531101472	61
5	1504	107.64659223982	62
5	1504	107.64659223982	63
5	1588	114.10940890344	64
5	1588	114.10940890344	65
5	1609	115.718472525385	66
5	1609	115.718472525385	67
5	1636	118.367112523429	68
5	1636	118.367112523429	69
5	1731	126.329752709792	70
5	1731	126.329752709792	71
5	1771	129.596124751248	72
5	1771	129.596124751248	73
5	1813	132.595870773932	74
5	1813	132.595870773932	75
5	1853	135.051749431757	76
5	1853	135.051749431757	77
5	1881	136.938624649122	78
5	1881	136.938624649122	79
5	1910	138.578988840626	80
5	1910	138.578988840626	81
5	1931	139.700249663231	82
5	1931	139.700249663231	83
5	1982	142.990114185791	84
5	1982	142.990114185791	85
5	2025	145.348206774	86
5	2025	145.348206774	87
5	2050	147.100949493851	88
5	2050	147.100949493851	89
5	2086	149.849276977393	90
5	2086	149.849276977393	91
5	2114	151.455307648072	92
5	2114	151.455307648072	93
5	2152	156.060051714902	94
5	2152	156.060051714902	95
5	2206	159.763533664155	96
5	2206	159.763533664155	97
5	2226	161.216602970049	98
5	2226	161.216602970049	99
5	2259	162.514619214109	100
5	2259	162.514619214109	101
5	2280	163.957879090165	102
5	2280	163.957879090165	103
5	2305	165.431377802325	104
5	2305	165.431377802325	105
5	2352	168.516816694944	106
5	2352	168.516816694944	107
5	2460	178.049175216674	108
5	2460	178.049175216674	109
5	2482	179.487292244888	110
5	2482	179.487292244888	111
5	2533	185.45365469696	112
5	2533	185.45365469696	113
5	2558	187.288384440086	114
5	2558	187.288384440086	115
5	2583	189.160462678785	116
5	2583	189.160462678785	117
5	2606	194.41881820915	118
5	2606	194.41881820915	119
5	2638	196.270002702384	120
5	2638	196.270002702384	121
5	2652	198.241844691284	122
5	2652	198.241844691284	123
5	2695	201.240421542852	124
5	2695	201.240421542852	125
5	2796	209.138626952581	126
5	2796	209.138626952581	127
5	2971	227.3051477348	128
5	2971	227.3051477348	129
5	3043	232.282094615773	130
5	3043	232.282094615773	131
5	3090	235.470189312712	132
5	3090	235.470189312712	133
5	3155	238.989981918062	134
5	3155	238.989981918062	135
6	20	0.172295634789	0
6	20	0.172295634789	1
6	20	0.172295634789	2
6	44	1.319096231747	3
6	44	1.319096231747	4
6	44	1.319096231747	5
6	67	2.848373217738	6
6	67	2.848373217738	7
6	67	2.848373217738	8
6	91	4.445666962727	9
6	91	4.445666962727	10
6	91	4.445666962727	11
6	113	6.387390801443	12
6	113	6.387390801443	13
6	113	6.387390801443	14
6	138	7.908266827596	15
6	138	7.908266827596	16
6	138	7.908266827596	17
6	156	9.792609775286	18
6	156	9.792609775286	19
6	156	9.792609775286	20
6	182	11.133531050825	21
6	182	11.133531050825	22
6	182	11.133531050825	23
6	204	12.79284419012	24
6	204	12.79284419012	25
6	204	12.79284419012	26
6	232	14.473902972513	27
6	232	14.473902972513	28
6	232	14.473902972513	29
6	272	17.426133927177	30
6	272	17.426133927177	31
6	272	17.426133927177	32
6	295	19.043900658313	33
6	295	19.043900658313	34
6	295	19.043900658313	35
6	321	21.38499600241	36
6	321	21.38499600241	37
6	321	21.38499600241	38
6	367	25.611551640816	39
6	367	25.611551640816	40
6	367	25.611551640816	41
6	396	27.126930900172	42
6	396	27.126930900172	43
6	396	27.126930900172	44
6	420	28.160402139467	45
6	420	28.160402139467	46
6	420	28.160402139467	47
6	438	30.094936872565	48
6	438	30.094936872565	49
6	438	30.094936872565	50
6	468	31.355029925895	51
6	468	31.355029925895	52
6	468	31.355029925895	53
6	488	34.363544071247	54
6	488	34.363544071247	55
6	488	34.363544071247	56
6	533	37.320792873059	57
6	533	37.320792873059	58
6	533	37.320792873059	59
6	550	38.769320575744	60
6	550	38.769320575744	61
6	550	38.769320575744	62
6	594	40.881512649008	63
6	594	40.881512649008	64
6	594	40.881512649008	65
6	619	42.312203245231	66
6	619	42.312203245231	67
6	619	42.312203245231	68
6	642	43.418346829127	69
6	642	43.418346829127	70
6	642	43.418346829127	71
6	669	44.727630251057	72
6	669	44.727630251057	73
6	669	44.727630251057	74
6	684	46.47088436168	75
6	684	46.47088436168	76
6	684	46.47088436168	77
6	719	47.829453067791	78
6	719	47.829453067791	79
6	719	47.829453067791	80
6	742	49.440771714171	81
6	742	49.440771714171	82
6	742	49.440771714171	83
6	785	52.286461287807	84
6	785	52.286461287807	85
6	785	52.286461287807	86
6	816	55.453158508347	87
6	816	55.453158508347	88
6	816	55.453158508347	89
6	848	57.83212564629	90
6	848	57.83212564629	91
6	848	57.83212564629	92
6	874	59.672222156515	93
6	874	59.672222156515	94
6	874	59.672222156515	95
6	924	62.829382528887	96
6	924	62.829382528887	97
6	924	62.829382528887	98
6	970	67.131239851996	99
6	970	67.131239851996	100
6	970	67.131239851996	101
6	1021	69.867340440181	102
6	1021	69.867340440181	103
6	1021	69.867340440181	104
6	1046	71.719207080842	105
6	1046	71.719207080842	106
6	1046	71.719207080842	107
6	1092	76.82322556684	108
6	1092	76.82322556684	109
6	1092	76.82322556684	110
6	1109	77.893040861169	111
6	1109	77.893040861169	112
6	1109	77.893040861169	113
6	1143	79.256365327494	114
6	1143	79.256365327494	115
6	1143	79.256365327494	116
6	1170	80.563111129985	117
6	1170	80.563111129985	118
6	1170	80.563111129985	119
6	1193	81.969427766746	120
6	1193	81.969427766746	121
6	1193	81.969427766746	122
6	1214	83.592030177608	123
6	1214	83.592030177608	124
6	1214	83.592030177608	125
6	1232	85.10920208303	126
6	1232	85.10920208303	127
6	1232	85.10920208303	128
6	1253	86.424122254834	129
6	1253	86.424122254834	130
6	1253	86.424122254834	131
6	1296	89.16490709854	132
6	1296	89.16490709854	133
6	1296	89.16490709854	134
6	1334	93.224156497239	135
6	1334	93.224156497239	136
6	1334	93.224156497239	137
6	1371	96.102117100505	138
6	1371	96.102117100505	139
6	1371	96.102117100505	140
6	1399	97.943315636254	141
6	1399	97.943315636254	142
6	1399	97.943315636254	143
6	1435	101.377393469293	144
6	1435	101.377393469293	145
6	1435	101.377393469293	146
6	1453	104.860694120763	147
6	1453	104.860694120763	148
6	1453	104.860694120763	149
6	1467	106.440154047292	150
6	1467	106.440154047292	151
6	1467	106.440154047292	152
6	1495	107.607157870098	153
6	1495	107.607157870098	154
6	1495	107.607157870098	155
6	1519	109.522079589408	156
6	1519	109.522079589408	157
6	1519	109.522079589408	158
6	1544	111.079570210442	159
6	1544	111.079570210442	160
6	1544	111.079570210442	161
6	1566	112.138717631868	162
6	1566	112.138717631868	163
6	1566	112.138717631868	164
6	1610	115.726982767466	165
6	1610	115.726982767466	166
6	1610	115.726982767466	167
6	1635	118.359456120993	168
6	1635	118.359456120993	169
6	1635	118.359456120993	170
6	1662	119.6145287867	171
6	1662	119.6145287867	172
6	1662	119.6145287867	173
6	1684	121.028038395716	174
6	1684	121.028038395716	175
6	1684	121.028038395716	176
6	1702	124.420012521051	177
6	1702	124.420012521051	178
6	1702	124.420012521051	179
6	1746	127.677449005694	180
6	1746	127.677449005694	181
6	1746	127.677449005694	182
6	1809	132.554350283812	183
6	1809	132.554350283812	184
6	1809	132.554350283812	185
6	1827	133.730991896204	186
6	1827	133.730991896204	187
6	1827	133.730991896204	188
6	1859	135.069379997534	189
6	1859	135.069379997534	190
6	1859	135.069379997534	191
6	1882	136.942297909698	192
6	1882	136.942297909698	193
6	1882	136.942297909698	194
6	1902	138.56306618683	195
6	1902	138.56306618683	196
6	1902	138.56306618683	197
6	1934	139.721526115933	198
6	1934	139.721526115933	199
6	1934	139.721526115933	200
6	1953	141.698274372607	201
6	1953	141.698274372607	202
6	1953	141.698274372607	203
6	1974	142.957524260328	204
6	1974	142.957524260328	205
6	1974	142.957524260328	206
6	2003	144.189913985197	207
6	2003	144.189913985197	208
6	2003	144.189913985197	209
6	2028	145.380602822002	210
6	2028	145.380602822002	211
6	2028	145.380602822002	212
6	2051	147.105860599218	213
6	2051	147.105860599218	214
6	2051	147.105860599218	215
6	2077	149.827214058201	216
6	2077	149.827214058201	217
6	2077	149.827214058201	218
6	2106	151.425850787289	219
6	2106	151.425850787289	220
6	2106	151.425850787289	221
6	2145	156.047006146813	222
6	2145	156.047006146813	223
6	2145	156.047006146813	224
6	2185	158.603211890702	225
6	2185	158.603211890702	226
6	2185	158.603211890702	227
6	2233	161.232246354398	228
6	2233	161.232246354398	229
6	2233	161.232246354398	230
6	2249	162.45788976013	231
6	2249	162.45788976013	232
6	2249	162.45788976013	233
6	2301	165.408181153816	234
6	2301	165.408181153816	235
6	2301	165.408181153816	236
6	2326	167.238946764374	237
6	2326	167.238946764374	238
6	2326	167.238946764374	239
6	2345	168.494862480196	240
6	2345	168.494862480196	241
6	2345	168.494862480196	242
6	2387	173.362109136062	243
6	2387	173.362109136062	244
6	2387	173.362109136062	245
6	2412	174.830221735342	246
6	2412	174.830221735342	247
6	2412	174.830221735342	248
6	2430	176.774299061656	249
6	2430	176.774299061656	250
6	2430	176.774299061656	251
6	2451	178.037310595615	252
6	2451	178.037310595615	253
6	2451	178.037310595615	254
6	2481	179.480330338581	255
6	2481	179.480330338581	256
6	2481	179.480330338581	257
6	2546	187.256730942192	258
6	2546	187.256730942192	259
6	2546	187.256730942192	260
6	2571	189.105391593861	261
6	2571	189.105391593861	262
6	2571	189.105391593861	263
6	2630	196.254380008226	264
6	2630	196.254380008226	265
6	2630	196.254380008226	266
6	2673	199.370272778913	267
6	2673	199.370272778913	268
6	2673	199.370272778913	269
6	2730	204.995137044406	270
6	2730	204.995137044406	271
6	2730	204.995137044406	272
6	2752	206.586308558362	273
6	2752	206.586308558362	274
6	2752	206.586308558362	275
6	2772	207.762020102366	276
6	2772	207.762020102366	277
6	2772	207.762020102366	278
6	2809	211.080691065676	279
6	2809	211.080691065676	280
6	2809	211.080691065676	281
6	2837	212.925414388982	282
6	2837	212.925414388982	283
6	2837	212.925414388982	284
6	2853	214.531872512011	285
6	2853	214.531872512011	286
6	2853	214.531872512011	287
6	2875	216.37938974618	288
6	2875	216.37938974618	289
6	2875	216.37938974618	290
6	2903	219.651781056475	291
6	2903	219.651781056475	292
6	2903	219.651781056475	293
6	2952	225.622657549073	294
6	2952	225.622657549073	295
6	2952	225.622657549073	296
6	2992	229.009940144146	297
6	2992	229.009940144146	298
6	2992	229.009940144146	299
6	3014	230.59979465345	300
6	3014	230.59979465345	301
6	3014	230.59979465345	302
6	3035	232.205959185138	303
6	3035	232.205959185138	304
6	3035	232.205959185138	305
6	3060	234.111365409143	306
6	3060	234.111365409143	307
6	3060	234.111365409143	308
6	3081	235.450591348606	309
6	3081	235.450591348606	310
6	3081	235.450591348606	311
6	3109	236.541587673667	312
6	3109	236.541587673667	313
6	3109	236.541587673667	314
6	3129	237.74717762439	315
6	3129	237.74717762439	316
6	3129	237.74717762439	317
7	72	2.858373217738	0
7	94	4.455666962727	1
7	116	6.397390801443	2
7	141	7.918266827596	3
7	185	11.143531050825	4
7	207	12.80284419012	5
7	231	14.472371589364	6
7	235	14.483902972513	7
7	335	21.463285329657	8
7	374	25.621551640816	9
7	442	30.104936872565	10
7	491	34.373544071247	11
7	539	37.330792873059	12
7	564	38.815815657139	13
7	603	40.892840615943	14
7	624	42.322203245231	15
7	690	46.48088436168	16
7	697	46.527796701679	17
7	744	49.447041638965	18
7	787	52.293088507275	19
7	851	57.84212564629	20
7	862	57.968319052176	21
7	923	62.827665553343	22
7	984	67.201295816628	23
7	1005	68.598697462971	24
7	1030	69.882440693873	25
7	1112	77.903040861169	26
7	1148	79.266365327494	27
7	1169	80.524914605991	28
7	1173	80.573111129985	29
7	1217	83.602030177608	30
7	1242	85.145340089376	31
7	1302	89.191312833556	32
7	1339	93.234156497239	33
7	1341	93.235528722532	34
7	1438	101.387393469293	35
7	1456	104.870694120763	36
7	1481	106.495531101472	37
7	1506	107.65659223982	38
7	1569	112.148717631868	39
7	1612	115.728472525385	40
7	1615	115.736982767466	41
7	1641	118.369456120993	42
7	1687	121.038038395716	43
7	1733	126.339752709792	44
7	1776	129.606124751248	45
7	1812	132.564350283812	46
7	1815	132.605870773932	47
7	1862	135.079379997534	48
7	1887	136.952297909698	49
7	1906	138.57306618683	50
7	1933	139.710249663231	51
7	2006	144.199913985197	52
7	2053	147.110949493851	53
7	2109	151.435850787289	54
7	2116	151.465307648072	55
7	2211	159.773533664155	56
7	2329	167.248946764374	57
7	2433	176.784299061656	58
7	2459	178.047310595615	59
7	2487	179.497292244888	60
7	2609	194.42881820915	61
7	2634	196.264380008226	62
7	2640	196.280002702384	63
7	2755	206.596308558362	64
7	2812	211.090691065676	65
7	2955	225.632657549073	66
7	2974	227.3151477348	67
7	3063	234.121365409143	68
7	3132	237.75717762439	69

