version 2
run General-3-20230921-22:36:11-7122
attr configname General
attr datetime 20230921-22:36:11
attr experiment General
attr inifile omnetpp.ini
attr iterationvars ""
attr iterationvarsf ""
attr measurement ""
attr network Network3
attr processid 7122
attr repetition 3
attr replication #3
attr resultdir results
attr runnumber 3
attr seedset 3
param Network3.node[*].transmissionTime "uniform(1s, 2s)"
param Network3.node[*].delayTime "uniform(0.01s, 0.2s)"
param Network3.node[*].processingTime exponential(0.01s)
param Network3.node[0].lossProbability 0
param Network3.node[1].lossProbability 0.2
param Network3.node[2].lossProbability 0.2
param Network3.node[3].lossProbability "0.2 / 2"
param Network3.node[4].lossProbability "0.2 / 2"
param Network3.node[6].lossProbability "0.2 * 2"
param Network3.node[7].lossProbability "0.2 * 2"
param Network3.node[5].lossProbability "0.2 * 3"

vector 0 Network3.node[0] txVector ETV
vector 1 Network3.node[2] txVector ETV
vector 2 Network3.node[1] txVector ETV
vector 3 Network3.node[4] txVector ETV
vector 4 Network3.node[3] txVector ETV
vector 5 Network3.node[6] txVector ETV
vector 6 Network3.node[7] txVector ETV
vector 7 Network3.node[5] rxVector ETV
0	1	0.114651601831	0
0	1	0.114651601831	1
0	15	1.185376482154	2
0	15	1.185376482154	3
0	18	2.433264783886	4
0	18	2.433264783886	5
0	43	3.87407462236	6
0	43	3.87407462236	7
0	68	5.460694594379	8
0	68	5.460694594379	9
0	93	6.838688639761	10
0	93	6.838688639761	11
0	107	8.709760690411	12
0	107	8.709760690411	13
0	129	10.402394437534	14
0	129	10.402394437534	15
0	148	11.923998774332	16
0	148	11.923998774332	17
0	173	13.520662551816	18
0	173	13.520662551816	19
0	198	15.046773551335	20
0	198	15.046773551335	21
0	223	16.243154129084	22
0	223	16.243154129084	23
0	237	17.746409419296	24
0	237	17.746409419296	25
0	262	19.014357174119	26
0	262	19.014357174119	27
0	283	20.974064364634	28
0	283	20.974064364634	29
0	308	22.791099725594	30
0	308	22.791099725594	31
0	329	24.671224514558	32
0	329	24.671224514558	33
0	354	25.909660812304	34
0	354	25.909660812304	35
0	376	27.444395683077	36
0	376	27.444395683077	37
0	397	29.187132955831	38
0	397	29.187132955831	39
0	408	31.071197624388	40
0	408	31.071197624388	41
0	430	32.254969940358	42
0	430	32.254969940358	43
0	436	33.478292918136	44
0	436	33.478292918136	45
0	461	34.479038438365	46
0	461	34.479038438365	47
0	486	36.255800472643	48
0	486	36.255800472643	49
0	508	37.673067369336	50
0	508	37.673067369336	51
0	533	39.138760438492	52
0	533	39.138760438492	53
0	558	40.705141913915	54
0	558	40.705141913915	55
0	583	42.122703821935	56
0	583	42.122703821935	57
0	608	43.715177783348	58
0	608	43.715177783348	59
0	633	45.365819955316	60
0	633	45.365819955316	61
0	655	46.774409799442	62
0	655	46.774409799442	63
0	680	48.265471110657	64
0	680	48.265471110657	65
0	705	49.816303709593	66
0	705	49.816303709593	67
0	730	50.902547327174	68
0	730	50.902547327174	69
0	755	52.521874597367	70
0	755	52.521874597367	71
0	769	54.261867667619	72
0	769	54.261867667619	73
0	794	55.722761686496	74
0	794	55.722761686496	75
0	819	57.257402192406	76
0	819	57.257402192406	77
0	833	58.574084984675	78
0	833	58.574084984675	79
0	854	60.128289073776	80
0	854	60.128289073776	81
0	857	61.634255351103	82
0	857	61.634255351103	83
0	882	63.58349237598	84
0	882	63.58349237598	85
0	904	64.725377802807	86
0	904	64.725377802807	87
0	922	66.469982562889	88
0	922	66.469982562889	89
0	925	68.329415183584	90
0	925	68.329415183584	91
0	950	70.18844725478	92
0	950	70.18844725478	93
0	968	71.754281587969	94
0	968	71.754281587969	95
0	993	73.588818771835	96
0	993	73.588818771835	97
0	1015	75.233020254947	98
0	1015	75.233020254947	99
0	1018	76.972380175093	100
0	1018	76.972380175093	101
0	1040	78.851188771032	102
0	1040	78.851188771032	103
0	1065	79.969350838872	104
0	1065	79.969350838872	105
0	1087	81.61922249694	106
0	1087	81.61922249694	107
0	1112	82.889071720956	108
0	1112	82.889071720956	109
0	1137	84.334072513344	110
0	1137	84.334072513344	111
0	1162	85.756609508606	112
0	1162	85.756609508606	113
0	1187	87.02280100023	114
0	1187	87.02280100023	115
0	1205	88.54946121208	116
0	1205	88.54946121208	117
0	1227	90.418926877273	118
0	1227	90.418926877273	119
0	1248	92.116055893084	120
0	1248	92.116055893084	121
0	1273	93.573038976477	122
0	1273	93.573038976477	123
0	1295	95.012491153391	124
0	1295	95.012491153391	125
0	1320	96.119571765024	126
0	1320	96.119571765024	127
0	1342	97.527713834379	128
0	1342	97.527713834379	129
0	1356	99.322813264165	130
0	1356	99.322813264165	131
0	1374	100.774240643555	132
0	1374	100.774240643555	133
0	1399	102.683694775287	134
0	1399	102.683694775287	135
0	1424	104.343110973552	136
0	1424	104.343110973552	137
0	1443	105.661459564069	138
0	1443	105.661459564069	139
0	1465	106.785539079994	140
0	1465	106.785539079994	141
0	1483	108.681817498827	142
0	1483	108.681817498827	143
0	1508	110.167204917479	144
0	1508	110.167204917479	145
0	1533	111.704928433826	146
0	1533	111.704928433826	147
0	1558	113.460520622391	148
0	1558	113.460520622391	149
0	1580	115.315201080475	150
0	1580	115.315201080475	151
0	1602	116.650634797361	152
0	1602	116.650634797361	153
0	1624	117.844659293607	154
0	1624	117.844659293607	155
0	1646	119.347582721222	156
0	1646	119.347582721222	157
0	1671	120.966854834068	158
0	1671	120.966854834068	159
0	1693	122.52224209609	160
0	1693	122.52224209609	161
0	1696	123.756699844566	162
0	1696	123.756699844566	163
0	1710	125.523316356889	164
0	1710	125.523316356889	165
0	1735	126.987510031159	166
0	1735	126.987510031159	167
0	1756	128.631857686513	168
0	1756	128.631857686513	169
0	1778	129.817343048123	170
0	1778	129.817343048123	171
0	1803	131.631509560696	172
0	1803	131.631509560696	173
0	1828	133.355534548941	174
0	1828	133.355534548941	175
0	1847	134.682837256533	176
0	1847	134.682837256533	177
0	1872	136.566007683589	178
0	1872	136.566007683589	179
0	1897	137.732485106517	180
0	1897	137.732485106517	181
0	1922	139.406260680709	182
0	1922	139.406260680709	183
0	1944	140.607097417185	184
0	1944	140.607097417185	185
0	1965	142.230582114378	186
0	1965	142.230582114378	187
0	1986	143.768530305311	188
0	1986	143.768530305311	189
0	2008	145.006599312484	190
0	2008	145.006599312484	191
0	2030	146.662033334676	192
0	2030	146.662033334676	193
0	2055	147.744493938586	194
0	2055	147.744493938586	195
0	2077	149.262468873825	196
0	2077	149.262468873825	197
0	2102	150.533407355728	198
0	2102	150.533407355728	199
0	2127	152.205760738416	200
0	2127	152.205760738416	201
0	2149	153.455806819791	202
0	2149	153.455806819791	203
0	2174	155.237955631059	204
0	2174	155.237955631059	205
0	2199	156.790571976289	206
0	2199	156.790571976289	207
0	2221	157.975096825579	208
0	2221	157.975096825579	209
0	2243	159.068698074505	210
0	2243	159.068698074505	211
0	2264	161.03040132306	212
0	2264	161.03040132306	213
0	2289	162.945040213945	214
0	2289	162.945040213945	215
0	2311	163.99923774444	216
0	2311	163.99923774444	217
0	2314	165.313532535056	218
0	2314	165.313532535056	219
0	2335	166.792321736994	220
0	2335	166.792321736994	221
0	2345	168.349873353331	222
0	2345	168.349873353331	223
0	2367	169.532143771718	224
0	2367	169.532143771718	225
0	2389	170.8053147414	226
0	2389	170.8053147414	227
0	2414	172.000828018947	228
0	2414	172.000828018947	229
0	2435	173.020972474315	230
0	2435	173.020972474315	231
0	2453	174.88180141251	232
0	2453	174.88180141251	233
0	2478	176.568003219156	234
0	2478	176.568003219156	235
0	2503	178.502530353446	236
0	2503	178.502530353446	237
0	2528	179.960185769782	238
0	2528	179.960185769782	239
0	2550	181.839229518151	240
0	2550	181.839229518151	241
0	2572	182.96606734658	242
0	2572	182.96606734658	243
0	2597	184.518761450261	244
0	2597	184.518761450261	245
0	2619	185.978160053561	246
0	2619	185.978160053561	247
0	2644	187.33814820561	248
0	2644	187.33814820561	249
0	2669	189.108708892319	250
0	2669	189.108708892319	251
0	2691	190.736822943272	252
0	2691	190.736822943272	253
0	2713	192.591355183231	254
0	2713	192.591355183231	255
0	2716	193.873675318504	256
0	2716	193.873675318504	257
0	2741	195.268171172193	258
0	2741	195.268171172193	259
0	2744	197.122204444441	260
0	2744	197.122204444441	261
0	2766	198.760921253893	262
0	2766	198.760921253893	263
0	2791	200.663813417382	264
0	2791	200.663813417382	265
0	2813	201.894068978331	266
0	2813	201.894068978331	267
0	2835	203.559466648917	268
0	2835	203.559466648917	269
0	2857	205.029400420445	270
0	2857	205.029400420445	271
0	2882	206.6338887844	272
0	2882	206.6338887844	273
0	2903	208.26386885189	274
0	2903	208.26386885189	275
0	2928	209.809446977521	276
0	2928	209.809446977521	277
0	2949	210.87417673117	278
0	2949	210.87417673117	279
0	2970	212.276719980244	280
0	2970	212.276719980244	281
0	2988	213.472323729959	282
0	2988	213.472323729959	283
0	3013	215.40561190953	284
0	3013	215.40561190953	285
0	3035	217.079991640826	286
0	3035	217.079991640826	287
0	3054	218.275487796241	288
0	3054	218.275487796241	289
0	3076	219.483742403635	290
0	3076	219.483742403635	291
0	3097	220.918918583612	292
0	3097	220.918918583612	293
0	3111	222.261554056383	294
0	3111	222.261554056383	295
0	3117	223.933208977641	296
0	3117	223.933208977641	297
0	3142	225.337604439655	298
0	3142	225.337604439655	299
0	3164	226.898353573471	300
0	3164	226.898353573471	301
0	3189	228.493730002153	302
0	3189	228.493730002153	303
0	3203	230.390735172504	304
0	3203	230.390735172504	305
0	3228	232.354291098495	306
0	3228	232.354291098495	307
0	3250	234.281334587908	308
0	3250	234.281334587908	309
0	3253	235.315062517603	310
0	3253	235.315062517603	311
0	3275	236.491719962168	312
0	3275	236.491719962168	313
0	3297	238.433758952492	314
0	3297	238.433758952492	315
0	3300	239.954291265295	316
0	3300	239.954291265295	317
1	4	0.125945044446	0
1	4	0.125945044446	1
1	34	2.482225691171	2
1	34	2.482225691171	3
1	55	3.923973455185	4
1	55	3.923973455185	5
1	72	5.481290747835	6
1	72	5.481290747835	7
1	96	6.853374681501	8
1	96	6.853374681501	9
1	110	8.724260198134	10
1	110	8.724260198134	11
1	152	11.934752069144	12
1	152	11.934752069144	13
1	180	13.547798361776	14
1	180	13.547798361776	15
1	205	15.069707772825	16
1	205	15.069707772825	17
1	240	17.758758713492	18
1	240	17.758758713492	19
1	269	19.042525635037	20
1	269	19.042525635037	21
1	295	21.031010896191	22
1	295	21.031010896191	23
1	316	22.836721945251	24
1	316	22.836721945251	25
1	332	24.681483108184	26
1	332	24.681483108184	27
1	357	25.922285326468	28
1	357	25.922285326468	29
1	380	27.461668605883	30
1	380	27.461668605883	31
1	412	31.08808485087	32
1	412	31.08808485087	33
1	433	32.267610877011	34
1	433	32.267610877011	35
1	440	33.49448349022	36
1	440	33.49448349022	37
1	464	34.491622427409	38
1	464	34.491622427409	39
1	501	36.299412585519	40
1	501	36.299412585519	41
1	511	37.684961051578	42
1	511	37.684961051578	43
1	537	39.149304736577	44
1	537	39.149304736577	45
1	566	40.738239106026	46
1	566	40.738239106026	47
1	586	42.140336000516	48
1	586	42.140336000516	49
1	612	43.73332793508	50
1	612	43.73332793508	51
1	637	45.380342780163	52
1	637	45.380342780163	53
1	658	46.787151849208	54
1	658	46.787151849208	55
1	683	48.279723734008	56
1	683	48.279723734008	57
1	708	49.8263644642	58
1	708	49.8263644642	59
1	734	50.916523274918	60
1	734	50.916523274918	61
1	758	52.53773651377	62
1	758	52.53773651377	63
1	773	54.281493432531	64
1	773	54.281493432531	65
1	807	55.765575549416	66
1	807	55.765575549416	67
1	823	57.274929807071	68
1	823	57.274929807071	69
1	848	58.629988099173	70
1	848	58.629988099173	71
1	860	61.656146399601	72
1	860	61.656146399601	73
1	901	63.668078587822	74
1	901	63.668078587822	75
1	912	64.750734838541	76
1	912	64.750734838541	77
1	928	68.33974794449	78
1	928	68.33974794449	79
1	954	70.202717741279	80
1	954	70.202717741279	81
1	972	71.766979322807	82
1	972	71.766979322807	83
1	1012	73.655771929378	84
1	1012	73.655771929378	85
1	1025	76.993719644918	86
1	1025	76.993719644918	87
1	1047	78.875074677563	88
1	1047	78.875074677563	89
1	1069	79.982102178018	90
1	1069	79.982102178018	91
1	1090	81.636032758664	92
1	1090	81.636032758664	93
1	1134	82.941082769971	94
1	1134	82.941082769971	95
1	1148	84.369758966622	96
1	1148	84.369758966622	97
1	1169	85.777205441359	98
1	1169	85.777205441359	99
1	1202	87.105799847748	100
1	1202	87.105799847748	101
1	1208	88.568853079013	102
1	1208	88.568853079013	103
1	1230	90.440152842045	104
1	1230	90.440152842045	105
1	1251	92.133763237548	106
1	1251	92.133763237548	107
1	1276	93.587592181613	108
1	1276	93.587592181613	109
1	1298	95.024673783948	110
1	1298	95.024673783948	111
1	1323	96.140045183368	112
1	1323	96.140045183368	113
1	1350	97.556859667897	114
1	1350	97.556859667897	115
1	1359	99.338677884827	116
1	1359	99.338677884827	117
1	1381	100.801067410612	118
1	1381	100.801067410612	119
1	1402	102.694201023492	120
1	1402	102.694201023492	121
1	1469	106.803392389255	122
1	1469	106.803392389255	123
1	1486	108.691879327366	124
1	1486	108.691879327366	125
1	1511	110.17766190762	126
1	1511	110.17766190762	127
1	1536	111.716457096315	128
1	1536	111.716457096315	129
1	1561	113.470736445687	130
1	1561	113.470736445687	131
1	1583	115.325386347247	132
1	1583	115.325386347247	133
1	1605	116.661462640252	134
1	1605	116.661462640252	135
1	1635	117.889597807718	136
1	1635	117.889597807718	137
1	1649	119.36098342432	138
1	1649	119.36098342432	139
1	1683	121.033626457631	140
1	1683	121.033626457631	141
1	1700	123.774827291764	142
1	1700	123.774827291764	143
1	1713	125.534751644143	144
1	1713	125.534751644143	145
1	1738	127.00536956744	146
1	1738	127.00536956744	147
1	1775	128.73593343509	148
1	1775	128.73593343509	149
1	1781	129.839139372987	150
1	1781	129.839139372987	151
1	1806	131.642054267995	152
1	1806	131.642054267995	153
1	1851	134.702534465226	154
1	1851	134.702534465226	155
1	1880	136.612786953578	156
1	1880	136.612786953578	157
1	1905	137.759734837658	158
1	1905	137.759734837658	159
1	1925	139.421203057801	160
1	1925	139.421203057801	161
1	1947	140.619229788317	162
1	1947	140.619229788317	163
1	1980	142.27598898152	164
1	1980	142.27598898152	165
1	2005	143.82093221873	166
1	2005	143.82093221873	167
1	2011	145.018852174264	168
1	2011	145.018852174264	169
1	2033	146.672818635545	170
1	2033	146.672818635545	171
1	2066	147.784238345849	172
1	2066	147.784238345849	173
1	2080	149.280037591197	174
1	2080	149.280037591197	175
1	2105	150.554206866539	176
1	2105	150.554206866539	177
1	2131	152.21753255857	178
1	2131	152.21753255857	179
1	2152	153.475443986011	180
1	2152	153.475443986011	181
1	2177	155.250670629411	182
1	2177	155.250670629411	183
1	2250	159.116025457669	184
1	2250	159.116025457669	185
1	2286	161.121895403258	186
1	2286	161.121895403258	187
1	2293	162.956513102399	188
1	2293	162.956513102399	189
1	2317	165.326942733577	190
1	2317	165.326942733577	191
1	2338	166.80264775709	192
1	2338	166.80264775709	193
1	2348	168.368392043399	194
1	2348	168.368392043399	195
1	2374	169.557248263116	196
1	2374	169.557248263116	197
1	2392	170.821908369885	198
1	2392	170.821908369885	199
1	2417	172.013915304911	200
1	2417	172.013915304911	201
1	2439	173.038402682201	202
1	2439	173.038402682201	203
1	2461	174.912370901667	204
1	2461	174.912370901667	205
1	2482	176.589673580665	206
1	2482	176.589673580665	207
1	2506	178.536199132986	208
1	2506	178.536199132986	209
1	2547	180.054912052784	210
1	2547	180.054912052784	211
1	2553	181.852131349738	212
1	2553	181.852131349738	213
1	2575	182.976570494495	214
1	2575	182.976570494495	215
1	2606	184.545444723832	216
1	2606	184.545444723832	217
1	2635	186.045466864141	218
1	2635	186.045466864141	219
1	2647	187.36361175556	220
1	2647	187.36361175556	221
1	2673	189.123152813525	222
1	2673	189.123152813525	223
1	2694	190.74860568586	224
1	2694	190.74860568586	225
1	2719	193.885146651538	226
1	2719	193.885146651538	227
1	2751	197.151338779011	228
1	2751	197.151338779011	229
1	2770	198.774959098737	230
1	2770	198.774959098737	231
1	2794	200.700609251833	232
1	2794	200.700609251833	233
1	2832	201.944587252094	234
1	2832	201.944587252094	235
1	2850	203.608337982239	236
1	2850	203.608337982239	237
1	2860	205.043683721589	238
1	2860	205.043683721589	239
1	2885	206.646934664644	240
1	2885	206.646934664644	241
1	2907	208.276238475312	242
1	2907	208.276238475312	243
1	2932	209.831843408325	244
1	2932	209.831843408325	245
1	2952	210.885765933338	246
1	2952	210.885765933338	247
1	2973	212.292344768175	248
1	2973	212.292344768175	249
1	2991	213.489613266157	250
1	2991	213.489613266157	251
1	3016	215.416242234973	252
1	3016	215.416242234973	253
1	3058	218.293186077468	254
1	3058	218.293186077468	255
1	3080	219.50111543579	256
1	3080	219.50111543579	257
1	3100	220.945610213251	258
1	3100	220.945610213251	259
1	3114	222.276233961865	260
1	3114	222.276233961865	261
1	3124	223.957692839943	262
1	3124	223.957692839943	263
1	3145	225.35364522646	264
1	3145	225.35364522646	265
1	3167	226.908788734719	266
1	3167	226.908788734719	267
1	3210	230.414094678997	268
1	3210	230.414094678997	269
1	3232	232.375385783932	270
1	3232	232.375385783932	271
1	3256	235.326362589252	272
1	3256	235.326362589252	273
1	3287	236.555458507034	274
1	3287	236.555458507034	275
1	3303	239.966384300802	276
1	3303	239.966384300802	277
2	7	0.14297423212	0
2	7	0.14297423212	1
2	7	0.14297423212	2
2	21	2.443568099883	3
2	21	2.443568099883	4
2	21	2.443568099883	5
2	46	3.887289356697	6
2	46	3.887289356697	7
2	46	3.887289356697	8
2	71	5.471662093662	9
2	71	5.471662093662	10
2	71	5.471662093662	11
2	99	6.865360780266	12
2	99	6.865360780266	13
2	99	6.865360780266	14
2	111	8.725664799395	15
2	111	8.725664799395	16
2	111	8.725664799395	17
2	132	10.413932937159	18
2	132	10.413932937159	19
2	132	10.413932937159	20
2	151	11.934691947387	21
2	151	11.934691947387	22
2	151	11.934691947387	23
2	176	13.536191708791	24
2	176	13.536191708791	25
2	176	13.536191708791	26
2	201	15.058906378344	27
2	201	15.058906378344	28
2	201	15.058906378344	29
2	226	16.261646003326	30
2	226	16.261646003326	31
2	226	16.261646003326	32
2	251	17.804460857745	33
2	251	17.804460857745	34
2	251	17.804460857745	35
2	265	19.032139015608	36
2	265	19.032139015608	37
2	265	19.032139015608	38
2	286	21.002884836433	39
2	286	21.002884836433	40
2	286	21.002884836433	41
2	311	22.817142454127	42
2	311	22.817142454127	43
2	311	22.817142454127	44
2	335	24.693186732581	45
2	335	24.693186732581	46
2	335	24.693186732581	47
2	360	25.934575930865	48
2	360	25.934575930865	49
2	360	25.934575930865	50
2	379	27.458029606602	51
2	379	27.458029606602	52
2	379	27.458029606602	53
2	400	29.200787623425	54
2	400	29.200787623425	55
2	400	29.200787623425	56
2	411	31.086930967993	57
2	411	31.086930967993	58
2	411	31.086930967993	59
2	439	33.488600720599	60
2	439	33.488600720599	61
2	439	33.488600720599	62
2	471	34.536082912623	63
2	471	34.536082912623	64
2	471	34.536082912623	65
2	489	36.265843228322	66
2	489	36.265843228322	67
2	489	36.265843228322	68
2	515	37.702521122449	69
2	515	37.702521122449	70
2	515	37.702521122449	71
2	536	39.149034478058	72
2	536	39.149034478058	73
2	536	39.149034478058	74
2	561	40.718573648792	75
2	561	40.718573648792	76
2	561	40.718573648792	77
2	602	42.224822310379	78
2	602	42.224822310379	79
2	602	42.224822310379	80
2	611	43.733012429759	81
2	611	43.733012429759	82
2	611	43.733012429759	83
2	636	45.377618396176	84
2	636	45.377618396176	85
2	636	45.377618396176	86
2	661	46.798265563514	87
2	661	46.798265563514	88
2	661	46.798265563514	89
2	687	48.3035062887	90
2	687	48.3035062887	91
2	687	48.3035062887	92
2	709	49.830499541588	93
2	709	49.830499541588	94
2	709	49.830499541588	95
2	733	50.914817684067	96
2	733	50.914817684067	97
2	733	50.914817684067	98
2	761	52.549415024325	99
2	761	52.549415024325	100
2	761	52.549415024325	101
2	772	54.276605366326	102
2	772	54.276605366326	103
2	772	54.276605366326	104
2	797	55.735114494017	105
2	797	55.735114494017	106
2	797	55.735114494017	107
2	822	57.268167587254	108
2	822	57.268167587254	109
2	822	57.268167587254	110
2	836	58.595355210063	111
2	836	58.595355210063	112
2	836	58.595355210063	113
2	867	61.683996381514	114
2	867	61.683996381514	115
2	867	61.683996381514	116
2	885	63.605456670782	117
2	885	63.605456670782	118
2	885	63.605456670782	119
2	907	64.736519025085	120
2	907	64.736519025085	121
2	907	64.736519025085	122
2	931	68.350343294622	123
2	931	68.350343294622	124
2	931	68.350343294622	125
2	953	70.20234940142	126
2	953	70.20234940142	127
2	953	70.20234940142	128
2	971	71.76621137681	129
2	971	71.76621137681	130
2	971	71.76621137681	131
2	996	73.604016689327	132
2	996	73.604016689327	133
2	996	73.604016689327	134
2	1021	76.982561585193	135
2	1021	76.982561585193	136
2	1021	76.982561585193	137
2	1043	78.864622726535	138
2	1043	78.864622726535	139
2	1043	78.864622726535	140
2	1068	79.981854388651	141
2	1068	79.981854388651	142
2	1068	79.981854388651	143
2	1091	81.639974753574	144
2	1091	81.639974753574	145
2	1091	81.639974753574	146
2	1115	82.90193444198	147
2	1115	82.90193444198	148
2	1115	82.90193444198	149
2	1140	84.346776009655	150
2	1140	84.346776009655	151
2	1140	84.346776009655	152
2	1165	85.766622742673	153
2	1165	85.766622742673	154
2	1165	85.766622742673	155
2	1190	87.038786101434	156
2	1190	87.038786101434	157
2	1190	87.038786101434	158
2	1211	88.591786203211	159
2	1211	88.591786203211	160
2	1211	88.591786203211	161
2	1231	90.440204615429	162
2	1231	90.440204615429	163
2	1231	90.440204615429	164
2	1266	92.195306699539	165
2	1266	92.195306699539	166
2	1266	92.195306699539	167
2	1277	93.590192565401	168
2	1277	93.590192565401	169
2	1277	93.590192565401	170
2	1299	95.031636536251	171
2	1299	95.031636536251	172
2	1299	95.031636536251	173
2	1338	96.205387150842	174
2	1338	96.205387150842	175
2	1338	96.205387150842	176
2	1345	97.541958896306	177
2	1345	97.541958896306	178
2	1345	97.541958896306	179
2	1360	99.342987046682	180
2	1360	99.342987046682	181
2	1360	99.342987046682	182
2	1377	100.790457363557	183
2	1377	100.790457363557	184
2	1377	100.790457363557	185
2	1410	102.728150861769	186
2	1410	102.728150861769	187
2	1410	102.728150861769	188
2	1427	104.389759245516	189
2	1427	104.389759245516	190
2	1427	104.389759245516	191
2	1446	105.674059122233	192
2	1446	105.674059122233	193
2	1446	105.674059122233	194
2	1468	106.798576818742	195
2	1468	106.798576818742	196
2	1468	106.798576818742	197
2	1487	108.694723424086	198
2	1487	108.694723424086	199
2	1487	108.694723424086	200
2	1514	110.190764700302	201
2	1514	110.190764700302	202
2	1514	110.190764700302	203
2	1537	111.721339384247	204
2	1537	111.721339384247	205
2	1537	111.721339384247	206
2	1562	113.47777438165	207
2	1562	113.47777438165	208
2	1562	113.47777438165	209
2	1584	115.326289253233	210
2	1584	115.326289253233	211
2	1584	115.326289253233	212
2	1613	116.695167062073	213
2	1613	116.695167062073	214
2	1613	116.695167062073	215
2	1627	117.857520205871	216
2	1627	117.857520205871	217
2	1627	117.857520205871	218
2	1652	119.371727225711	219
2	1652	119.371727225711	220
2	1652	119.371727225711	221
2	1674	120.996586749982	222
2	1674	120.996586749982	223
2	1674	120.996586749982	224
2	1699	123.774161764376	225
2	1699	123.774161764376	226
2	1699	123.774161764376	227
2	1714	125.539127226813	228
2	1714	125.539127226813	229
2	1714	125.539127226813	230
2	1742	127.021669621776	231
2	1742	127.021669621776	232
2	1742	127.021669621776	233
2	1759	128.645243950472	234
2	1759	128.645243950472	235
2	1759	128.645243950472	236
2	1792	129.876106097861	237
2	1792	129.876106097861	238
2	1792	129.876106097861	239
2	1807	131.643890299876	240
2	1807	131.643890299876	241
2	1807	131.643890299876	242
2	1831	133.367427452669	243
2	1831	133.367427452669	244
2	1831	133.367427452669	245
2	1850	134.69424756948	246
2	1850	134.69424756948	247
2	1850	134.69424756948	248
2	1875	136.58575634222	249
2	1875	136.58575634222	250
2	1875	136.58575634222	251
2	1900	137.743732523491	252
2	1900	137.743732523491	253
2	1900	137.743732523491	254
2	1937	139.476309058707	255
2	1937	139.476309058707	256
2	1937	139.476309058707	257
2	1948	140.623608525248	258
2	1948	140.623608525248	259
2	1948	140.623608525248	260
2	1968	142.24241789635	261
2	1968	142.24241789635	262
2	1968	142.24241789635	263
2	1989	143.779835682493	264
2	1989	143.779835682493	265
2	1989	143.779835682493	266
2	2019	145.071455165107	267
2	2019	145.071455165107	268
2	2019	145.071455165107	269
2	2034	146.67496100135	270
2	2034	146.67496100135	271
2	2034	146.67496100135	272
2	2058	147.758524215038	273
2	2058	147.758524215038	274
2	2058	147.758524215038	275
2	2083	149.298934656545	276
2	2083	149.298934656545	277
2	2083	149.298934656545	278
2	2113	150.582939267689	279
2	2113	150.582939267689	280
2	2113	150.582939267689	281
2	2130	152.21672777068	282
2	2130	152.21672777068	283
2	2130	152.21672777068	284
2	2153	153.476037272142	285
2	2153	153.476037272142	286
2	2153	153.476037272142	287
2	2178	155.251269203306	288
2	2178	155.251269203306	289
2	2178	155.251269203306	290
2	2202	156.802799834836	291
2	2202	156.802799834836	292
2	2202	156.802799834836	293
2	2224	157.994727096955	294
2	2224	157.994727096955	295
2	2224	157.994727096955	296
2	2246	159.1050707251	297
2	2246	159.1050707251	298
2	2246	159.1050707251	299
2	2267	161.05304524665	300
2	2267	161.05304524665	301
2	2267	161.05304524665	302
2	2292	162.955986233615	303
2	2292	162.955986233615	304
2	2292	162.955986233615	305
2	2318	165.336804438254	306
2	2318	165.336804438254	307
2	2318	165.336804438254	308
2	2349	168.372857957845	309
2	2349	168.372857957845	310
2	2349	168.372857957845	311
2	2370	169.543073241032	312
2	2370	169.543073241032	313
2	2370	169.543073241032	314
2	2399	170.893322960715	315
2	2399	170.893322960715	316
2	2399	170.893322960715	317
2	2418	172.022821368814	318
2	2418	172.022821368814	319
2	2418	172.022821368814	320
2	2438	173.036492475757	321
2	2438	173.036492475757	322
2	2438	173.036492475757	323
2	2456	174.894131685283	324
2	2456	174.894131685283	325
2	2456	174.894131685283	326
2	2481	176.585350702272	327
2	2481	176.585350702272	328
2	2481	176.585350702272	329
2	2514	178.56371886324	330
2	2514	178.56371886324	331
2	2514	178.56371886324	332
2	2531	179.975591095044	333
2	2531	179.975591095044	334
2	2531	179.975591095044	335
2	2560	181.88896093058	336
2	2560	181.88896093058	337
2	2560	181.88896093058	338
2	2590	183.047900776112	339
2	2590	183.047900776112	340
2	2590	183.047900776112	341
2	2600	184.532803892334	342
2	2600	184.532803892334	343
2	2600	184.532803892334	344
2	2622	186.004840554955	345
2	2622	186.004840554955	346
2	2622	186.004840554955	347
2	2654	187.394399118017	348
2	2654	187.394399118017	349
2	2654	187.394399118017	350
2	2672	189.121020241359	351
2	2672	189.121020241359	352
2	2672	189.121020241359	353
2	2695	190.749520297027	354
2	2695	190.749520297027	355
2	2695	190.749520297027	356
2	2720	193.891701685143	357
2	2720	193.891701685143	358
2	2720	193.891701685143	359
2	2747	197.136412255071	360
2	2747	197.136412255071	361
2	2747	197.136412255071	362
2	2769	198.772173493941	363
2	2769	198.772173493941	364
2	2769	198.772173493941	365
2	2801	200.732758307397	366
2	2801	200.732758307397	367
2	2801	200.732758307397	368
2	2816	201.906578342109	369
2	2816	201.906578342109	370
2	2816	201.906578342109	371
2	2838	203.583607110527	372
2	2838	203.583607110527	373
2	2838	203.583607110527	374
2	2863	205.056812866683	375
2	2863	205.056812866683	376
2	2863	205.056812866683	377
2	2888	206.66073522253	378
2	2888	206.66073522253	379
2	2888	206.66073522253	380
2	2906	208.274879175896	381
2	2906	208.274879175896	382
2	2906	208.274879175896	383
2	2931	209.831686296655	384
2	2931	209.831686296655	385
2	2931	209.831686296655	386
2	2956	210.901924822172	387
2	2956	210.901924822172	388
2	2956	210.901924822172	389
2	2977	212.311134632488	390
2	2977	212.311134632488	391
2	2977	212.311134632488	392
2	2992	213.489984984509	393
2	2992	213.489984984509	394
2	2992	213.489984984509	395
2	3023	215.44900723296	396
2	3023	215.44900723296	397
2	3023	215.44900723296	398
2	3038	217.090351840203	399
2	3038	217.090351840203	400
2	3038	217.090351840203	401
2	3057	218.288797178238	402
2	3057	218.288797178238	403
2	3057	218.288797178238	404
2	3079	219.496722891367	405
2	3079	219.496722891367	406
2	3079	219.496722891367	407
2	3107	221.001656087636	408
2	3107	221.001656087636	409
2	3107	221.001656087636	410
2	3120	223.947492757857	411
2	3120	223.947492757857	412
2	3120	223.947492757857	413
2	3146	225.354417894938	414
2	3146	225.354417894938	415
2	3146	225.354417894938	416
2	3168	226.91216616405	417
2	3168	226.91216616405	418
2	3168	226.91216616405	419
2	3192	228.509935673446	420
2	3192	228.509935673446	421
2	3192	228.509935673446	422
2	3206	230.403760071122	423
2	3206	230.403760071122	424
2	3206	230.403760071122	425
2	3231	232.366183854752	426
2	3231	232.366183854752	427
2	3231	232.366183854752	428
2	3257	235.327861914764	429
2	3257	235.327861914764	430
2	3257	235.327861914764	431
2	3278	236.532602783361	432
2	3278	236.532602783361	433
2	3278	236.532602783361	434
2	3306	239.999924330007	435
2	3306	239.999924330007	436
2	3306	239.999924330007	437
3	11	0.158289352909	0
3	11	0.158289352909	1
3	11	0.158289352909	2
3	26	2.464041895315	3
3	26	2.464041895315	4
3	26	2.464041895315	5
3	50	3.911463708956	6
3	50	3.911463708956	7
3	50	3.911463708956	8
3	82	5.494164556213	9
3	82	5.494164556213	10
3	82	5.494164556213	11
3	103	6.877609464575	12
3	103	6.877609464575	13
3	103	6.877609464575	14
3	118	8.747993830332	15
3	118	8.747993830332	16
3	118	8.747993830332	17
3	140	10.440384762996	18
3	140	10.440384762996	19
3	140	10.440384762996	20
3	158	11.946628548732	21
3	158	11.946628548732	22
3	158	11.946628548732	23
3	184	13.559149647837	24
3	184	13.559149647837	25
3	184	13.559149647837	26
3	214	15.100687612742	27
3	214	15.100687612742	28
3	214	15.100687612742	29
3	243	17.771658781358	30
3	243	17.771658781358	31
3	243	17.771658781358	32
3	279	19.089578420863	33
3	279	19.089578420863	34
3	279	19.089578420863	35
3	290	21.016561960309	36
3	290	21.016561960309	37
3	290	21.016561960309	38
3	325	22.888391955814	39
3	325	22.888391955814	40
3	325	22.888391955814	41
3	336	24.69391592626	42
3	336	24.69391592626	43
3	336	24.69391592626	44
3	361	25.938065718342	45
3	361	25.938065718342	46
3	361	25.938065718342	47
3	386	27.474510040138	48
3	386	27.474510040138	49
3	386	27.474510040138	50
3	422	31.135600152282	51
3	422	31.135600152282	52
3	422	31.135600152282	53
3	444	33.499388860779	54
3	444	33.499388860779	55
3	444	33.499388860779	56
3	467	34.515920341031	57
3	467	34.515920341031	58
3	467	34.515920341031	59
3	497	36.288086894575	60
3	497	36.288086894575	61
3	497	36.288086894575	62
3	514	37.700174478679	63
3	514	37.700174478679	64
3	514	37.700174478679	65
3	543	39.161937069308	66
3	543	39.161937069308	67
3	543	39.161937069308	68
3	565	40.731210491143	69
3	565	40.731210491143	70
3	565	40.731210491143	71
3	589	42.168802882199	72
3	589	42.168802882199	73
3	589	42.168802882199	74
3	619	43.751477715478	75
3	619	43.751477715478	76
3	619	43.751477715478	77
3	647	45.404988903348	78
3	647	45.404988903348	79
3	647	45.404988903348	80
3	676	46.853849487476	81
3	676	46.853849487476	82
3	676	46.853849487476	83
3	686	48.302383193178	84
3	686	48.302383193178	85
3	686	48.302383193178	86
3	715	49.840566708849	87
3	715	49.840566708849	88
3	715	49.840566708849	89
3	738	50.925445097791	90
3	738	50.925445097791	91
3	738	50.925445097791	92
3	765	52.571303220908	93
3	765	52.571303220908	94
3	765	52.571303220908	95
3	780	54.29918902176	96
3	780	54.29918902176	97
3	780	54.29918902176	98
3	801	55.752622367046	99
3	801	55.752622367046	100
3	801	55.752622367046	101
3	829	57.287904472411	102
3	829	57.287904472411	103
3	829	57.287904472411	104
3	844	58.619701078543	105
3	844	58.619701078543	106
3	844	58.619701078543	107
3	863	61.67009897706	108
3	863	61.67009897706	109
3	863	61.67009897706	110
3	893	63.637980286186	111
3	893	63.637980286186	112
3	893	63.637980286186	113
3	911	64.747860138615	114
3	911	64.747860138615	115
3	911	64.747860138615	116
3	932	68.3554640844	117
3	932	68.3554640844	118
3	932	68.3554640844	119
3	960	70.219629267159	120
3	960	70.219629267159	121
3	960	70.219629267159	122
3	978	71.780124544885	123
3	978	71.780124544885	124
3	978	71.780124544885	125
3	1000	73.619733738125	126
3	1000	73.619733738125	127
3	1000	73.619733738125	128
3	1026	76.996354832054	129
3	1026	76.996354832054	130
3	1026	76.996354832054	131
3	1051	78.885400697601	132
3	1051	78.885400697601	133
3	1051	78.885400697601	134
3	1075	80.016367907873	135
3	1075	80.016367907873	136
3	1075	80.016367907873	137
3	1094	81.647577474162	138
3	1094	81.647577474162	139
3	1094	81.647577474162	140
3	1120	82.9228119592	141
3	1120	82.9228119592	142
3	1120	82.9228119592	143
3	1144	84.358320262871	144
3	1144	84.358320262871	145
3	1144	84.358320262871	146
3	1183	85.816293798609	147
3	1183	85.816293798609	148
3	1183	85.816293798609	149
3	1198	87.076409230769	150
3	1198	87.076409230769	151
3	1198	87.076409230769	152
3	1212	88.601008966723	153
3	1212	88.601008966723	154
3	1212	88.601008966723	155
3	1238	90.462760691639	156
3	1238	90.462760691639	157
3	1238	90.462760691639	158
3	1254	92.148158395719	159
3	1254	92.148158395719	160
3	1254	92.148158395719	161
3	1287	93.611439498392	162
3	1287	93.611439498392	163
3	1287	93.611439498392	164
3	1305	95.044953831509	165
3	1305	95.044953831509	166
3	1305	95.044953831509	167
3	1326	96.150090469484	168
3	1326	96.150090469484	169
3	1326	96.150090469484	170
3	1349	97.554939798845	171
3	1349	97.554939798845	172
3	1349	97.554939798845	173
3	1370	99.386383635022	174
3	1370	99.386383635022	175
3	1370	99.386383635022	176
3	1382	100.804192375414	177
3	1382	100.804192375414	178
3	1382	100.804192375414	179
3	1405	102.708092507267	180
3	1405	102.708092507267	181
3	1405	102.708092507267	182
3	1432	104.425842640054	183
3	1432	104.425842640054	184
3	1432	104.425842640054	185
3	1461	105.74280339393	186
3	1461	105.74280339393	187
3	1461	105.74280339393	188
3	1473	106.812074764713	189
3	1473	106.812074764713	190
3	1473	106.812074764713	191
3	1493	108.708345062465	192
3	1493	108.708345062465	193
3	1493	108.708345062465	194
3	1515	110.191917597913	195
3	1515	110.191917597913	196
3	1515	110.191917597913	197
3	1540	111.726846457802	198
3	1540	111.726846457802	199
3	1540	111.726846457802	200
3	1565	113.482757528269	201
3	1565	113.482757528269	202
3	1565	113.482757528269	203
3	1590	115.338046592846	204
3	1590	115.338046592846	205
3	1590	115.338046592846	206
3	1608	116.673765690574	207
3	1608	116.673765690574	208
3	1608	116.673765690574	209
3	1638	117.900312543256	210
3	1638	117.900312543256	211
3	1638	117.900312543256	212
3	1657	119.392699889896	213
3	1657	119.392699889896	214
3	1657	119.392699889896	215
3	1678	121.010071138156	216
3	1678	121.010071138156	217
3	1678	121.010071138156	218
3	1706	123.787820301291	219
3	1706	123.787820301291	220
3	1706	123.787820301291	221
3	1717	125.544862300837	222
3	1717	125.544862300837	223
3	1717	125.544862300837	224
3	1741	127.021469522189	225
3	1741	127.021469522189	226
3	1741	127.021469522189	227
3	1771	128.702848047162	228
3	1771	128.702848047162	229
3	1771	128.702848047162	230
3	1784	129.850988360304	231
3	1784	129.850988360304	232
3	1784	129.850988360304	233
3	1820	131.704791350758	234
3	1820	131.704791350758	235
3	1820	131.704791350758	236
3	1836	133.388442987715	237
3	1836	133.388442987715	238
3	1836	133.388442987715	239
3	1855	134.704789919584	240
3	1855	134.704789919584	241
3	1855	134.704789919584	242
3	1888	136.625819967316	243
3	1888	136.625819967316	244
3	1888	136.625819967316	245
3	1906	137.765327915051	246
3	1906	137.765327915051	247
3	1906	137.765327915051	248
3	1928	139.44437919981	249
3	1928	139.44437919981	250
3	1928	139.44437919981	251
3	1951	140.631806885416	252
3	1951	140.631806885416	253
3	1951	140.631806885416	254
3	1972	142.255491386669	255
3	1972	142.255491386669	256
3	1972	142.255491386669	257
3	1994	143.798512638036	258
3	1994	143.798512638036	259
3	1994	143.798512638036	260
3	2014	145.056657582123	261
3	2014	145.056657582123	262
3	2014	145.056657582123	263
3	2040	146.68997805879	264
3	2040	146.68997805879	265
3	2040	146.68997805879	266
3	2062	147.77313434037	267
3	2062	147.77313434037	268
3	2062	147.77313434037	269
3	2087	149.318947750761	270
3	2087	149.318947750761	271
3	2087	149.318947750761	272
3	2108	150.569326763571	273
3	2108	150.569326763571	274
3	2108	150.569326763571	275
3	2138	152.238338890648	276
3	2138	152.238338890648	277
3	2138	152.238338890648	278
3	2159	153.488475261388	279
3	2159	153.488475261388	280
3	2159	153.488475261388	281
3	2184	155.26168063984	282
3	2184	155.26168063984	283
3	2184	155.26168063984	284
3	2206	156.820421419722	285
3	2206	156.820421419722	286
3	2206	156.820421419722	287
3	2232	158.024612631358	288
3	2232	158.024612631358	289
3	2232	158.024612631358	290
3	2254	159.131108961206	291
3	2254	159.131108961206	292
3	2254	159.131108961206	293
3	2282	161.105305917968	294
3	2282	161.105305917968	295
3	2282	161.105305917968	296
3	2307	162.996529168963	297
3	2307	162.996529168963	298
3	2307	162.996529168963	299
3	2325	165.358196300486	300
3	2325	165.358196300486	301
3	2325	165.358196300486	302
3	2341	166.842012245254	303
3	2341	166.842012245254	304
3	2341	166.842012245254	305
3	2355	168.403311250837	306
3	2355	168.403311250837	307
3	2355	168.403311250837	308
3	2378	169.581229805106	309
3	2378	169.581229805106	310
3	2378	169.581229805106	311
3	2395	170.874389773306	312
3	2395	170.874389773306	313
3	2395	170.874389773306	314
3	2424	172.035197329883	315
3	2424	172.035197329883	316
3	2424	172.035197329883	317
3	2445	173.07711208646	318
3	2445	173.07711208646	319
3	2445	173.07711208646	320
3	2460	174.909606584041	321
3	2460	174.909606584041	322
3	2460	174.909606584041	323
3	2489	176.611320373133	324
3	2489	176.611320373133	325
3	2489	176.611320373133	326
3	2509	178.546686686962	327
3	2509	178.546686686962	328
3	2509	178.546686686962	329
3	2543	180.035575303902	330
3	2543	180.035575303902	331
3	2543	180.035575303902	332
3	2556	181.872829926747	333
3	2556	181.872829926747	334
3	2556	181.872829926747	335
3	2578	182.991999495279	336
3	2578	182.991999495279	337
3	2578	182.991999495279	338
3	2604	184.543514472462	339
3	2604	184.543514472462	340
3	2604	184.543514472462	341
3	2627	186.029293271937	342
3	2627	186.029293271937	343
3	2627	186.029293271937	344
3	2650	187.379477160334	345
3	2650	187.379477160334	346
3	2650	187.379477160334	347
3	2680	189.143513883177	348
3	2680	189.143513883177	349
3	2680	189.143513883177	350
3	2702	190.761919783241	351
3	2702	190.761919783241	352
3	2702	190.761919783241	353
3	2726	193.903221410805	354
3	2726	193.903221410805	355
3	2726	193.903221410805	356
3	2758	197.16646373491	357
3	2758	197.16646373491	358
3	2758	197.16646373491	359
3	2777	198.795852202583	360
3	2777	198.795852202583	361
3	2777	198.795852202583	362
3	2797	200.721663210652	363
3	2797	200.721663210652	364
3	2797	200.721663210652	365
3	2820	201.921340482885	366
3	2820	201.921340482885	367
3	2820	201.921340482885	368
3	2843	203.595725350102	369
3	2843	203.595725350102	370
3	2843	203.595725350102	371
3	2864	205.057229432317	372
3	2864	205.057229432317	373
3	2864	205.057229432317	374
3	2892	206.672313223878	375
3	2892	206.672313223878	376
3	2892	206.672313223878	377
3	2919	208.306283781233	378
3	2919	208.306283781233	379
3	2919	208.306283781233	380
3	2938	209.844037991369	381
3	2938	209.844037991369	382
3	2938	209.844037991369	383
3	2955	210.898475654759	384
3	2955	210.898475654759	385
3	2955	210.898475654759	386
3	2976	212.310149337855	387
3	2976	212.310149337855	388
3	2976	212.310149337855	389
3	2998	213.500340629002	390
3	2998	213.500340629002	391
3	2998	213.500340629002	392
3	3019	215.430985412123	393
3	3019	215.430985412123	394
3	3019	215.430985412123	395
3	3042	217.103781952428	396
3	3042	217.103781952428	397
3	3042	217.103781952428	398
3	3065	218.306887350847	399
3	3065	218.306887350847	400
3	3065	218.306887350847	401
3	3084	219.510362035078	402
3	3084	219.510362035078	403
3	3084	219.510362035078	404
3	3103	220.981646221328	405
3	3103	220.981646221328	406
3	3103	220.981646221328	407
3	3126	223.962921562717	408
3	3126	223.962921562717	409
3	3126	223.962921562717	410
3	3152	225.368968194408	411
3	3152	225.368968194408	412
3	3152	225.368968194408	413
3	3174	226.92284619901	414
3	3174	226.92284619901	415
3	3174	226.92284619901	416
3	3212	230.421208612371	417
3	3212	230.421208612371	418
3	3212	230.421208612371	419
3	3237	232.382296434763	420
3	3237	232.382296434763	421
3	3237	232.382296434763	422
3	3263	235.339756711272	423
3	3263	235.339756711272	424
3	3263	235.339756711272	425
3	3282	236.54300465164	426
3	3282	236.54300465164	427
3	3282	236.54300465164	428
4	25	2.456832152648	0
4	25	2.456832152648	1
4	25	2.456832152648	2
4	51	3.914303283977	3
4	51	3.914303283977	4
4	51	3.914303283977	5
4	76	5.481895983367	6
4	76	5.481895983367	7
4	76	5.481895983367	8
4	117	8.747350225921	9
4	117	8.747350225921	10
4	117	8.747350225921	11
4	136	10.427782138769	12
4	136	10.427782138769	13
4	136	10.427782138769	14
4	166	11.991049466703	15
4	166	11.991049466703	16
4	166	11.991049466703	17
4	181	13.552735589005	18
4	181	13.552735589005	19
4	181	13.552735589005	20
4	208	15.083437250149	21
4	208	15.083437250149	22
4	208	15.083437250149	23
4	230	16.29393871697	24
4	230	16.29393871697	25
4	230	16.29393871697	26
4	252	17.805433532315	27
4	252	17.805433532315	28
4	252	17.805433532315	29
4	270	19.043854846879	30
4	270	19.043854846879	31
4	270	19.043854846879	32
4	291	21.021117082276	33
4	291	21.021117082276	34
4	291	21.021117082276	35
4	315	22.828881788385	36
4	315	22.828881788385	37
4	315	22.828881788385	38
4	347	24.722045493327	39
4	347	24.722045493327	40
4	347	24.722045493327	41
4	372	25.979453020644	42
4	372	25.979453020644	43
4	372	25.979453020644	44
4	387	27.475292216039	45
4	387	27.475292216039	46
4	387	27.475292216039	47
4	404	29.218526699227	48
4	404	29.218526699227	49
4	404	29.218526699227	50
4	418	31.100403229721	51
4	418	31.100403229721	52
4	418	31.100403229721	53
4	445	33.501807625187	54
4	445	33.501807625187	55
4	445	33.501807625187	56
4	475	34.547652842626	57
4	475	34.547652842626	58
4	475	34.547652842626	59
4	493	36.276478386435	60
4	493	36.276478386435	61
4	493	36.276478386435	62
4	522	37.725087092976	63
4	522	37.725087092976	64
4	522	37.725087092976	65
4	547	39.182469848368	66
4	547	39.182469848368	67
4	547	39.182469848368	68
4	572	40.751246695747	69
4	572	40.751246695747	70
4	572	40.751246695747	71
4	597	42.204911031981	72
4	597	42.204911031981	73
4	597	42.204911031981	74
4	618	43.744984756925	75
4	618	43.744984756925	76
4	618	43.744984756925	77
4	643	45.394287562148	78
4	643	45.394287562148	79
4	643	45.394287562148	80
4	665	46.815301266015	81
4	665	46.815301266015	82
4	665	46.815301266015	83
4	694	48.318844143822	84
4	694	48.318844143822	85
4	694	48.318844143822	86
4	716	49.845483110318	87
4	716	49.845483110318	88
4	716	49.845483110318	89
4	741	50.926670162081	90
4	741	50.926670162081	91
4	741	50.926670162081	92
4	779	54.2919221615	93
4	779	54.2919221615	94
4	779	54.2919221615	95
4	802	55.756303449435	96
4	802	55.756303449435	97
4	802	55.756303449435	98
4	840	58.608214578453	99
4	840	58.608214578453	100
4	840	58.608214578453	101
4	875	61.699932611551	102
4	875	61.699932611551	103
4	875	61.699932611551	104
4	889	63.623621217177	105
4	889	63.623621217177	106
4	889	63.623621217177	107
4	939	68.367077933967	108
4	939	68.367077933967	109
4	939	68.367077933967	110
4	961	70.219701111755	111
4	961	70.219701111755	112
4	961	70.219701111755	113
4	986	71.83011109602	114
4	986	71.83011109602	115
4	986	71.83011109602	116
4	1004	73.632158498067	117
4	1004	73.632158498067	118
4	1004	73.632158498067	119
4	1032	77.012306347154	120
4	1032	77.012306347154	121
4	1032	77.012306347154	122
4	1048	78.879799301869	123
4	1048	78.879799301869	124
4	1048	78.879799301869	125
4	1079	80.028465501163	126
4	1079	80.028465501163	127
4	1079	80.028465501163	128
4	1098	81.652460947349	129
4	1098	81.652460947349	130
4	1098	81.652460947349	131
4	1119	82.918131889818	132
4	1119	82.918131889818	133
4	1119	82.918131889818	134
4	1149	84.374156089351	135
4	1149	84.374156089351	136
4	1149	84.374156089351	137
4	1170	85.778598579952	138
4	1170	85.778598579952	139
4	1170	85.778598579952	140
4	1194	87.057093750364	141
4	1194	87.057093750364	142
4	1194	87.057093750364	143
4	1216	88.606042805907	144
4	1216	88.606042805907	145
4	1216	88.606042805907	146
4	1237	90.461231284288	147
4	1237	90.461231284288	148
4	1237	90.461231284288	149
4	1262	92.183971440715	150
4	1262	92.183971440715	151
4	1262	92.183971440715	152
4	1283	93.601249137797	153
4	1283	93.601249137797	154
4	1283	93.601249137797	155
4	1306	95.045644738118	156
4	1306	95.045644738118	157
4	1306	95.045644738118	158
4	1334	96.1788919356	159
4	1334	96.1788919356	160
4	1334	96.1788919356	161
4	1366	99.361470230575	162
4	1366	99.361470230575	163
4	1366	99.361470230575	164
4	1389	100.817587198964	165
4	1389	100.817587198964	166
4	1389	100.817587198964	167
4	1417	102.744869329499	168
4	1417	102.744869329499	169
4	1417	102.744869329499	170
4	1431	104.421737856131	171
4	1431	104.421737856131	172
4	1431	104.421737856131	173
4	1450	105.698799540096	174
4	1450	105.698799540096	175
4	1450	105.698799540096	176
4	1476	106.821168251512	177
4	1476	106.821168251512	178
4	1476	106.821168251512	179
4	1494	108.715084094193	180
4	1494	108.715084094193	181
4	1494	108.715084094193	182
4	1522	110.208952733473	183
4	1522	110.208952733473	184
4	1522	110.208952733473	185
4	1547	111.74453038591	186
4	1547	111.74453038591	187
4	1547	111.74453038591	188
4	1573	113.501290925616	189
4	1573	113.501290925616	190
4	1573	113.501290925616	191
4	1594	115.350432278462	192
4	1594	115.350432278462	193
4	1594	115.350432278462	194
4	1617	116.703617653041	195
4	1617	116.703617653041	196
4	1617	116.703617653041	197
4	1631	117.878303051715	198
4	1631	117.878303051715	199
4	1631	117.878303051715	200
4	1656	119.390746068459	201
4	1656	119.390746068459	202
4	1656	119.390746068459	203
4	1687	121.041171800428	204
4	1687	121.041171800428	205
4	1687	121.041171800428	206
4	1728	125.609796220602	207
4	1728	125.609796220602	208
4	1728	125.609796220602	209
4	1749	127.033675148697	210
4	1749	127.033675148697	211
4	1749	127.033675148697	212
4	1763	128.661779758253	213
4	1763	128.661779758253	214
4	1763	128.661779758253	215
4	1793	129.882449838038	216
4	1793	129.882449838038	217
4	1793	129.882449838038	218
4	1813	131.662732835593	219
4	1813	131.662732835593	220
4	1813	131.662732835593	221
4	1835	133.380801011581	222
4	1835	133.380801011581	223
4	1835	133.380801011581	224
4	1861	134.714881190498	225
4	1861	134.714881190498	226
4	1861	134.714881190498	227
4	1879	136.606454896391	228
4	1879	136.606454896391	229
4	1879	136.606454896391	230
4	1904	137.756412776109	231
4	1904	137.756412776109	232
4	1904	137.756412776109	233
4	1936	139.473317872301	234
4	1936	139.473317872301	235
4	1936	139.473317872301	236
4	1955	140.638058386813	237
4	1955	140.638058386813	238
4	1955	140.638058386813	239
4	1973	142.263777390778	240
4	1973	142.263777390778	241
4	1973	142.263777390778	242
4	1993	143.794467125361	243
4	1993	143.794467125361	244
4	1993	143.794467125361	245
4	2026	145.086961146768	246
4	2026	145.086961146768	247
4	2026	145.086961146768	248
4	2041	146.698326104203	249
4	2041	146.698326104203	250
4	2041	146.698326104203	251
4	2069	147.798290447013	252
4	2069	147.798290447013	253
4	2069	147.798290447013	254
4	2091	149.344710851022	255
4	2091	149.344710851022	256
4	2091	149.344710851022	257
4	2120	150.596398354598	258
4	2120	150.596398354598	259
4	2120	150.596398354598	260
4	2137	152.235630796295	261
4	2137	152.235630796295	262
4	2137	152.235630796295	263
4	2160	153.493660947852	264
4	2160	153.493660947852	265
4	2160	153.493660947852	266
4	2185	155.271138975871	267
4	2185	155.271138975871	268
4	2185	155.271138975871	269
4	2207	156.823795304715	270
4	2207	156.823795304715	271
4	2207	156.823795304715	272
4	2228	158.013990905629	273
4	2228	158.013990905629	274
4	2228	158.013990905629	275
4	2251	159.124126601559	276
4	2251	159.124126601559	277
4	2251	159.124126601559	278
4	2271	161.068428112396	279
4	2271	161.068428112396	280
4	2271	161.068428112396	281
4	2299	162.967140458449	282
4	2299	162.967140458449	283
4	2299	162.967140458449	284
4	2324	165.354461825625	285
4	2324	165.354461825625	286
4	2324	165.354461825625	287
4	2360	168.42746764643	288
4	2360	168.42746764643	289
4	2360	168.42746764643	290
4	2377	169.577923966958	291
4	2377	169.577923966958	292
4	2377	169.577923966958	293
4	2403	170.93239627311	294
4	2403	170.93239627311	295
4	2403	170.93239627311	296
4	2428	172.059044367427	297
4	2428	172.059044367427	298
4	2428	172.059044367427	299
4	2446	173.082773705835	300
4	2446	173.082773705835	301
4	2446	173.082773705835	302
4	2462	174.917722603545	303
4	2462	174.917722603545	304
4	2462	174.917722603545	305
4	2488	176.602878440341	306
4	2488	176.602878440341	307
4	2488	176.602878440341	308
4	2521	178.57808204228	309
4	2521	178.57808204228	310
4	2521	178.57808204228	311
4	2535	179.991950477257	312
4	2535	179.991950477257	313
4	2535	179.991950477257	314
4	2565	181.90956845915	315
4	2565	181.90956845915	316
4	2565	181.90956845915	317
4	2586	183.034609133614	318
4	2586	183.034609133614	319
4	2586	183.034609133614	320
4	2605	184.543519140989	321
4	2605	184.543519140989	322
4	2605	184.543519140989	323
4	2626	186.026735771174	324
4	2626	186.026735771174	325
4	2626	186.026735771174	326
4	2658	187.407897631793	327
4	2658	187.407897631793	328
4	2658	187.407897631793	329
4	2679	189.135056102269	330
4	2679	189.135056102269	331
4	2679	189.135056102269	332
4	2701	190.761058378206	333
4	2701	190.761058378206	334
4	2701	190.761058378206	335
4	2730	193.914440481202	336
4	2730	193.914440481202	337
4	2730	193.914440481202	338
4	2752	197.154069310449	339
4	2752	197.154069310449	340
4	2752	197.154069310449	341
4	2776	198.787485671192	342
4	2776	198.787485671192	343
4	2776	198.787485671192	344
4	2805	200.769797032335	345
4	2805	200.769797032335	346
4	2805	200.769797032335	347
4	2825	201.932345398247	348
4	2825	201.932345398247	349
4	2825	201.932345398247	350
4	2842	203.594818825518	351
4	2842	203.594818825518	352
4	2842	203.594818825518	353
4	2871	205.070419533689	354
4	2871	205.070419533689	355
4	2871	205.070419533689	356
4	2896	206.683805873276	357
4	2896	206.683805873276	358
4	2896	206.683805873276	359
4	2913	208.287018530413	360
4	2913	208.287018530413	361
4	2913	208.287018530413	362
4	2939	209.852481573882	363
4	2939	209.852481573882	364
4	2939	209.852481573882	365
4	2963	210.912958689251	366
4	2963	210.912958689251	367
4	2963	210.912958689251	368
4	2984	212.33835824411	369
4	2984	212.33835824411	370
4	2984	212.33835824411	371
4	2999	213.502322542494	372
4	2999	213.502322542494	373
4	2999	213.502322542494	374
4	3028	215.467665394403	375
4	3028	215.467665394403	376
4	3028	215.467665394403	377
4	3043	217.104080668243	378
4	3043	217.104080668243	379
4	3043	217.104080668243	380
4	3062	218.300658346423	381
4	3062	218.300658346423	382
4	3062	218.300658346423	383
4	3090	219.521677104989	384
4	3090	219.521677104989	385
4	3090	219.521677104989	386
4	3125	223.957709810402	387
4	3125	223.957709810402	388
4	3125	223.957709810402	389
4	3153	225.37077924601	390
4	3153	225.37077924601	391
4	3153	225.37077924601	392
4	3178	226.935506294195	393
4	3178	226.935506294195	394
4	3178	226.935506294195	395
4	3196	228.522758716266	396
4	3196	228.522758716266	397
4	3196	228.522758716266	398
4	3211	230.415695979937	399
4	3211	230.415695979937	400
4	3211	230.415695979937	401
4	3236	232.379950329748	402
4	3236	232.379950329748	403
4	3236	232.379950329748	404
4	3264	235.343043222071	405
4	3264	235.343043222071	406
4	3264	235.343043222071	407
4	3283	236.551303501392	408
4	3283	236.551303501392	409
4	3283	236.551303501392	410
5	30	2.473617416936	0
5	30	2.473617416936	1
5	59	3.924511583446	2
5	59	3.924511583446	3
5	84	5.498224790687	4
5	84	5.498224790687	5
5	170	12.005047846772	6
5	170	12.005047846772	7
5	191	13.577552136501	8
5	191	13.577552136501	9
5	212	15.09437805905	10
5	212	15.09437805905	11
5	234	16.304335673446	12
5	234	16.304335673446	13
5	259	17.816028182317	14
5	259	17.816028182317	15
5	276	19.058020438336	16
5	276	19.058020438336	17
5	299	21.032619116894	18
5	299	21.032619116894	19
5	322	22.856476423091	20
5	322	22.856476423091	21
5	351	24.733049961794	22
5	351	24.733049961794	23
5	394	27.508395446082	24
5	394	27.508395446082	25
5	454	33.512281646625	26
5	454	33.512281646625	27
5	483	34.572312007494	28
5	483	34.572312007494	29
5	530	37.74125578081	30
5	530	37.74125578081	31
5	555	39.205054690889	32
5	555	39.205054690889	33
5	580	40.79739756991	34
5	580	40.79739756991	35
5	601	42.223996852487	36
5	601	42.223996852487	37
5	623	43.755922315757	38
5	623	43.755922315757	39
5	669	46.828908380158	40
5	669	46.828908380158	41
5	699	48.330332385904	42
5	699	48.330332385904	43
5	723	49.856347320655	44
5	723	49.856347320655	45
5	749	50.946766767297	46
5	749	50.946766767297	47
5	784	54.303218662906	48
5	784	54.303218662906	49
5	811	55.7723906335	50
5	811	55.7723906335	51
5	851	58.650213683149	52
5	851	58.650213683149	53
5	879	61.747828110843	54
5	879	61.747828110843	55
5	947	68.391508999303	56
5	947	68.391508999303	57
5	990	71.843244196629	58
5	990	71.843244196629	59
5	1055	78.891412220004	60
5	1055	78.891412220004	61
5	1109	81.669169162079	62
5	1109	81.669169162079	63
5	1124	82.928350284503	64
5	1124	82.928350284503	65
5	1156	84.390328597555	66
5	1156	84.390328597555	67
5	1177	85.800207711362	68
5	1177	85.800207711362	69
5	1242	90.472036906802	70
5	1242	90.472036906802	71
5	1267	92.195549930338	72
5	1267	92.195549930338	73
5	1313	95.063540393076	74
5	1313	95.063540393076	75
5	1396	100.846190884104	76
5	1396	100.846190884104	77
5	1421	102.761990266216	78
5	1421	102.761990266216	79
5	1454	105.711974065813	80
5	1454	105.711974065813	81
5	1501	108.726681501941	82
5	1501	108.726681501941	83
5	1526	110.222201953083	84
5	1526	110.222201953083	85
5	1551	111.755741074304	86
5	1551	111.755741074304	87
5	1668	119.416654224597	88
5	1668	119.416654224597	89
5	1732	125.631156551615	90
5	1732	125.631156551615	91
5	1753	127.05716872454	92
5	1753	127.05716872454	93
5	1800	129.893707992411	94
5	1800	129.893707992411	95
5	1817	131.673517467394	96
5	1817	131.673517467394	97
5	1866	134.726609625358	98
5	1866	134.726609625358	99
5	1885	136.619657698711	100
5	1885	136.619657698711	101
5	1919	137.786006394855	102
5	1919	137.786006394855	103
5	1962	140.649697526104	104
5	1962	140.649697526104	105
5	1983	142.297266368338	106
5	1983	142.297266368338	107
5	2049	146.712550579525	108
5	2049	146.712550579525	109
5	2099	149.3982147055	110
5	2099	149.3982147055	111
5	2124	150.620180296363	112
5	2124	150.620180296363	113
5	2171	153.522150787696	114
5	2171	153.522150787696	115
5	2192	155.292181826897	116
5	2192	155.292181826897	117
5	2215	156.84649057605	118
5	2215	156.84649057605	119
5	2240	158.06774931436	120
5	2240	158.06774931436	121
5	2258	159.134816703042	122
5	2258	159.134816703042	123
5	2275	161.080846615547	124
5	2275	161.080846615547	125
5	2332	165.376534519215	126
5	2332	165.376534519215	127
5	2407	170.943479311782	128
5	2407	170.943479311782	129
5	2432	172.073647660803	130
5	2432	172.073647660803	131
5	2472	174.930439160096	132
5	2472	174.930439160096	133
5	2500	176.644727523847	134
5	2500	176.644727523847	135
5	2525	178.595784925973	136
5	2525	178.595784925973	137
5	2594	183.064863170679	138
5	2594	183.064863170679	139
5	2634	186.040146308882	140
5	2634	186.040146308882	141
5	2662	187.418674204614	142
5	2662	187.418674204614	143
5	2735	193.926559452725	144
5	2735	193.926559452725	145
5	2781	198.803917680139	146
5	2781	198.803917680139	147
5	2875	205.08640406878	148
5	2875	205.08640406878	149
5	2900	206.705938162443	150
5	2900	206.705938162443	151
5	2917	208.301305878732	152
5	2917	208.301305878732	153
5	2946	209.862713325258	154
5	2946	209.862713325258	155
5	2967	210.924571207455	156
5	2967	210.924571207455	157
5	3006	213.516779887933	158
5	3006	213.516779887933	159
5	3094	219.5388418691	160
5	3094	219.5388418691	161
5	3132	223.970908539537	162
5	3132	223.970908539537	163
5	3182	226.946908912438	164
5	3182	226.946908912438	165
5	3200	228.538347366821	166
5	3200	228.538347366821	167
5	3225	230.45584521768	168
5	3225	230.45584521768	169
6	37	2.491285334163	0
6	37	2.491285334163	1
6	37	2.491285334163	2
6	60	3.926373469276	3
6	60	3.926373469276	4
6	60	3.926373469276	5
6	83	5.49503262479	6
6	83	5.49503262479	7
6	83	5.49503262479	8
6	125	8.768380490239	9
6	125	8.768380490239	10
6	125	8.768380490239	11
6	141	10.444368549068	12
6	141	10.444368549068	13
6	141	10.444368549068	14
6	162	11.957863981313	15
6	162	11.957863981313	16
6	162	11.957863981313	17
6	192	13.585417102773	18
6	192	13.585417102773	19
6	192	13.585417102773	20
6	213	15.100148626902	21
6	213	15.100148626902	22
6	213	15.100148626902	23
6	247	17.784871590632	24
6	247	17.784871590632	25
6	247	17.784871590632	26
6	300	21.034883222285	27
6	300	21.034883222285	28
6	300	21.034883222285	29
6	343	24.70719117452	30
6	343	24.70719117452	31
6	343	24.70719117452	32
6	368	25.953343593929	33
6	368	25.953343593929	34
6	368	25.953343593929	35
6	426	31.161630649475	36
6	426	31.161630649475	37
6	426	31.161630649475	38
6	457	33.522488104552	39
6	457	33.522488104552	40
6	457	33.522488104552	41
6	476	34.553404716945	42
6	476	34.553404716945	43
6	476	34.553404716945	44
6	504	36.330801274468	45
6	504	36.330801274468	46
6	504	36.330801274468	47
6	523	37.726086825471	48
6	523	37.726086825471	49
6	523	37.726086825471	50
6	548	39.184485754505	51
6	548	39.184485754505	52
6	548	39.184485754505	53
6	576	40.76183040634	54
6	576	40.76183040634	55
6	576	40.76183040634	56
6	593	42.194466223373	57
6	593	42.194466223373	58
6	593	42.194466223373	59
6	624	43.760639780777	60
6	624	43.760639780777	61
6	624	43.760639780777	62
6	651	45.417937253619	63
6	651	45.417937253619	64
6	651	45.417937253619	65
6	670	46.838803335067	66
6	670	46.838803335067	67
6	670	46.838803335067	68
6	695	48.321566085001	69
6	695	48.321566085001	70
6	695	48.321566085001	71
6	726	49.867730884044	72
6	726	49.867730884044	73
6	726	49.867730884044	74
6	748	50.942210180764	75
6	748	50.942210180764	76
6	748	50.942210180764	77
6	790	54.31437199968	78
6	790	54.31437199968	79
6	790	54.31437199968	80
6	806	55.764298633088	81
6	806	55.764298633088	82
6	806	55.764298633088	83
6	868	61.684555835771	84
6	868	61.684555835771	85
6	868	61.684555835771	86
6	897	63.649996830915	87
6	897	63.649996830915	88
6	897	63.649996830915	89
6	918	64.762831132546	90
6	918	64.762831132546	91
6	918	64.762831132546	92
6	940	68.370239947515	93
6	940	68.370239947515	94
6	940	68.370239947515	95
6	982	71.813429171274	96
6	982	71.813429171274	97
6	982	71.813429171274	98
6	1005	73.637690118698	99
6	1005	73.637690118698	100
6	1005	73.637690118698	101
6	1036	77.022995240081	102
6	1036	77.022995240081	103
6	1036	77.022995240081	104
6	1059	78.897880698941	105
6	1059	78.897880698941	106
6	1059	78.897880698941	107
6	1083	80.040732775814	108
6	1083	80.040732775814	109
6	1083	80.040732775814	110
6	1102	81.658940526513	111
6	1102	81.658940526513	112
6	1102	81.658940526513	113
6	1125	82.930701205675	114
6	1125	82.930701205675	115
6	1125	82.930701205675	116
6	1155	84.384167209887	117
6	1155	84.384167209887	118
6	1155	84.384167209887	119
6	1176	85.794476862785	120
6	1176	85.794476862785	121
6	1176	85.794476862785	122
6	1223	88.617634276457	123
6	1223	88.617634276457	124
6	1223	88.617634276457	125
6	1258	92.169577342881	126
6	1258	92.169577342881	127
6	1258	92.169577342881	128
6	1288	93.612590645459	129
6	1288	93.612590645459	130
6	1288	93.612590645459	131
6	1316	95.102139946105	132
6	1316	95.102139946105	133
6	1316	95.102139946105	134
6	1330	96.167196684666	135
6	1330	96.167196684666	136
6	1330	96.167196684666	137
6	1388	100.814255072923	138
6	1388	100.814255072923	139
6	1388	100.814255072923	140
6	1409	102.718283564286	141
6	1409	102.718283564286	142
6	1409	102.718283564286	143
6	1439	104.44233790117	144
6	1439	104.44233790117	145
6	1439	104.44233790117	146
6	1457	105.724200958368	147
6	1457	105.724200958368	148
6	1457	105.724200958368	149
6	1502	108.728962569261	150
6	1502	108.728962569261	151
6	1502	108.728962569261	152
6	1527	110.225745240081	153
6	1527	110.225745240081	154
6	1527	110.225745240081	155
6	1552	111.756609591195	156
6	1552	111.756609591195	157
6	1552	111.756609591195	158
6	1572	113.496908123405	159
6	1572	113.496908123405	160
6	1572	113.496908123405	161
6	1595	115.356892017869	162
6	1595	115.356892017869	163
6	1595	115.356892017869	164
6	1612	116.6891856991	165
6	1612	116.6891856991	166
6	1612	116.6891856991	167
6	1639	117.902889059774	168
6	1639	117.902889059774	169
6	1639	117.902889059774	170
6	1664	119.405012792454	171
6	1664	119.405012792454	172
6	1664	119.405012792454	173
6	1682	121.029504265746	174
6	1682	121.029504265746	175
6	1682	121.029504265746	176
6	1724	125.559742783008	177
6	1724	125.559742783008	178
6	1724	125.559742783008	179
6	1767	128.677638937772	180
6	1767	128.677638937772	181
6	1767	128.677638937772	182
6	1788	129.863967807436	183
6	1788	129.863967807436	184
6	1788	129.863967807436	185
6	1824	131.723588058556	186
6	1824	131.723588058556	187
6	1824	131.723588058556	188
6	1843	133.40945004787	189
6	1843	133.40945004787	190
6	1843	133.40945004787	191
6	1862	134.722106328277	192
6	1862	134.722106328277	193
6	1862	134.722106328277	194
6	1884	136.618444534435	195
6	1884	136.618444534435	196
6	1884	136.618444534435	197
6	1915	137.77575657137	198
6	1915	137.77575657137	199
6	1915	137.77575657137	200
6	1932	139.461835290487	201
6	1932	139.461835290487	202
6	1932	139.461835290487	203
6	1998	143.805798940072	204
6	1998	143.805798940072	205
6	1998	143.805798940072	206
6	2018	145.071178958716	207
6	2018	145.071178958716	208
6	2018	145.071178958716	209
6	2048	146.709435542343	210
6	2048	146.709435542343	211
6	2048	146.709435542343	212
6	2070	147.805588075426	213
6	2070	147.805588075426	214
6	2070	147.805588075426	215
6	2095	149.356285860785	216
6	2095	149.356285860785	217
6	2095	149.356285860785	218
6	2112	150.579911086515	219
6	2112	150.579911086515	220
6	2112	150.579911086515	221
6	2145	152.251446417368	222
6	2145	152.251446417368	223
6	2145	152.251446417368	224
6	2167	153.511924801551	225
6	2167	153.511924801551	226
6	2167	153.511924801551	227
6	2193	155.296487589408	228
6	2193	155.296487589408	229
6	2193	155.296487589408	230
6	2214	156.837367636514	231
6	2214	156.837367636514	232
6	2214	156.837367636514	233
6	2236	158.037701577067	234
6	2236	158.037701577067	235
6	2236	158.037701577067	236
6	2276	161.085928477588	237
6	2276	161.085928477588	238
6	2276	161.085928477588	239
6	2303	162.984013094237	240
6	2303	162.984013094237	241
6	2303	162.984013094237	242
6	2359	168.424950848769	243
6	2359	168.424950848769	244
6	2359	168.424950848769	245
6	2385	169.592886555793	246
6	2385	169.592886555793	247
6	2385	169.592886555793	248
6	2408	170.946878335603	249
6	2408	170.946878335603	250
6	2408	170.946878335603	251
6	2468	174.92676278081	252
6	2468	174.92676278081	253
6	2468	174.92676278081	254
6	2496	176.62264164006	255
6	2496	176.62264164006	256
6	2496	176.62264164006	257
6	2513	178.557453718607	258
6	2513	178.557453718607	259
6	2513	178.557453718607	260
6	2539	180.007399281856	261
6	2539	180.007399281856	262
6	2539	180.007399281856	263
6	2564	181.902206816875	264
6	2564	181.902206816875	265
6	2564	181.902206816875	266
6	2582	183.017614559163	267
6	2582	183.017614559163	268
6	2582	183.017614559163	269
6	2615	184.567640770877	270
6	2615	184.567640770877	271
6	2615	184.567640770877	272
6	2636	186.04872287885	273
6	2636	186.04872287885	274
6	2636	186.04872287885	275
6	2665	187.441560962988	276
6	2665	187.441560962988	277
6	2665	187.441560962988	278
6	2684	189.146962089358	279
6	2684	189.146962089358	280
6	2684	189.146962089358	281
6	2709	190.776318612723	282
6	2709	190.776318612723	283
6	2709	190.776318612723	284
6	2731	193.92147470696	285
6	2731	193.92147470696	286
6	2731	193.92147470696	287
6	2762	197.177293526979	288
6	2762	197.177293526979	289
6	2762	197.177293526979	290
6	2785	198.806051838578	291
6	2785	198.806051838578	292
6	2785	198.806051838578	293
6	2809	200.795500651112	294
6	2809	200.795500651112	295
6	2809	200.795500651112	296
6	2824	201.932286908521	297
6	2824	201.932286908521	298
6	2824	201.932286908521	299
6	2851	203.608789919041	300
6	2851	203.608789919041	301
6	2851	203.608789919041	302
6	2878	205.1269629589	303
6	2878	205.1269629589	304
6	2878	205.1269629589	305
6	2918	208.303080015188	306
6	2918	208.303080015188	307
6	2918	208.303080015188	308
6	3007	213.517859307999	309
6	3007	213.517859307999	310
6	3007	213.517859307999	311
6	3027	215.460840036748	312
6	3027	215.460840036748	313
6	3027	215.460840036748	314
6	3050	217.120050981081	315
6	3050	217.120050981081	316
6	3050	217.120050981081	317
6	3072	218.318831550855	318
6	3072	218.318831550855	319
6	3072	218.318831550855	320
6	3136	223.97524257659	321
6	3136	223.97524257659	322
6	3136	223.97524257659	323
6	3160	225.397342617794	324
6	3160	225.397342617794	325
6	3160	225.397342617794	326
6	3183	226.951923164829	327
6	3183	226.951923164829	328
6	3183	226.951923164829	329
6	3221	230.43326893389	330
6	3221	230.43326893389	331
6	3221	230.43326893389	332
6	3246	232.396912872021	333
6	3246	232.396912872021	334
6	3246	232.396912872021	335
6	3268	235.351111426916	336
6	3268	235.351111426916	337
6	3268	235.351111426916	338
6	3293	236.574254102076	339
6	3293	236.574254102076	340
6	3293	236.574254102076	341
7	42	2.501285334163	0
7	64	3.934511583446	1
7	90	5.50503262479	2
7	147	10.454368549068	3
7	165	11.967863981313	4
7	172	12.015047846772	5
7	216	15.10437805905	6
7	250	17.794871590632	7
7	261	17.826028182317	8
7	278	19.068020438336	9
7	304	21.042619116894	10
7	353	24.743049961794	11
7	396	27.518395446082	12
7	456	33.522281646625	13
7	507	36.340801274468	14
7	582	40.80739756991	15
7	604	42.233996852487	16
7	629	43.765922315757	17
7	725	49.866347320655	18
7	729	49.877730884044	19
7	793	54.32437199968	20
7	818	55.7823906335	21
7	874	61.694555835771	22
7	881	61.757828110843	23
7	949	68.401508999303	24
7	1011	73.647690118698	25
7	1086	80.050732775814	26
7	1159	84.394167209887	27
7	1161	84.400328597555	28
7	1180	85.804476862785	29
7	1182	85.810207711362	30
7	1315	95.073540393076	31
7	1319	95.112139946105	32
7	1333	96.177196684666	33
7	1442	104.45233790117	34
7	1456	105.721974065813	35
7	1507	108.738962569261	36
7	1529	110.232201953083	37
7	1554	111.765741074304	38
7	1557	111.766609591195	39
7	1576	113.506908123405	40
7	1601	115.366892017869	41
7	1667	119.415012792454	42
7	1670	119.426654224597	43
7	1686	121.039504265746	44
7	1770	128.687638937772	45
7	1802	129.903707992411	46
7	1827	131.733588058556	47
7	1871	134.736609625358	48
7	1964	140.659697526104	49
7	2004	143.815798940072	50
7	2052	146.719435542343	51
7	2054	146.722550579525	52
7	2173	153.532150787696	53
7	2220	156.85649057605	54
7	2242	158.07774931436	55
7	2306	162.994013094237	56
7	2334	165.386534519215	57
7	2410	170.953479311782	58
7	2434	172.083647660803	59
7	2499	176.63264164006	60
7	2643	186.05872287885	61
7	2668	187.451560962988	62
7	2738	193.93147470696	63
7	2787	198.813917680139	64
7	2790	198.816051838578	65
7	2828	201.942286908521	66
7	2877	205.09640406878	67
7	2921	208.311305878732	68
7	2924	208.313080015188	69
7	3009	213.526779887933	70
7	3012	213.527859307999	71
7	3031	215.470840036748	72
7	3053	217.130050981081	73
7	3075	218.328831550855	74
7	3096	219.5488418691	75
7	3138	223.980908539537	76
7	3224	230.44326893389	77
7	3249	232.406912872021	78

