version 2
run General-1-20230921-22:36:11-7122
attr configname General
attr datetime 20230921-22:36:11
attr experiment General
attr inifile omnetpp.ini
attr iterationvars ""
attr iterationvarsf ""
attr measurement ""
attr network Network3
attr processid 7122
attr repetition 1
attr replication #1
attr resultdir results
attr runnumber 1
attr seedset 1
param Network3.node[*].transmissionTime "uniform(1s, 2s)"
param Network3.node[*].delayTime "uniform(0.01s, 0.2s)"
param Network3.node[*].processingTime exponential(0.01s)
param Network3.node[0].lossProbability 0
param Network3.node[1].lossProbability 0.2
param Network3.node[2].lossProbability 0.2
param Network3.node[3].lossProbability "0.2 / 2"
param Network3.node[4].lossProbability "0.2 / 2"
param Network3.node[6].lossProbability "0.2 * 2"
param Network3.node[7].lossProbability "0.2 * 2"
param Network3.node[5].lossProbability "0.2 * 3"

vector 0 Network3.node[0] txVector ETV
vector 1 Network3.node[1] txVector ETV
vector 2 Network3.node[3] txVector ETV
vector 3 Network3.node[4] txVector ETV
vector 4 Network3.node[2] txVector ETV
vector 5 Network3.node[7] txVector ETV
vector 6 Network3.node[6] txVector ETV
vector 7 Network3.node[5] rxVector ETV
0	1	0.089234179703	0
0	1	0.089234179703	1
0	19	2.086418987836	2
0	19	2.086418987836	3
0	44	3.932729906055	4
0	44	3.932729906055	5
0	58	5.246154090741	6
0	58	5.246154090741	7
0	80	7.124296594995	8
0	80	7.124296594995	9
0	98	9.113157682472	10
0	98	9.113157682472	11
0	119	10.243186251612	12
0	119	10.243186251612	13
0	144	11.474201673062	14
0	144	11.474201673062	15
0	169	12.61347801646	16
0	169	12.61347801646	17
0	186	13.970009733343	18
0	186	13.970009733343	19
0	200	15.548399340713	20
0	200	15.548399340713	21
0	225	16.875044242831	22
0	225	16.875044242831	23
0	244	18.067000318904	24
0	244	18.067000318904	25
0	262	19.095306808016	26
0	262	19.095306808016	27
0	287	21.064902553688	28
0	287	21.064902553688	29
0	309	23.002092879619	30
0	309	23.002092879619	31
0	334	24.154230036893	32
0	334	24.154230036893	33
0	359	25.640575143396	34
0	359	25.640575143396	35
0	384	26.853308838214	36
0	384	26.853308838214	37
0	409	28.588374803894	38
0	409	28.588374803894	39
0	434	29.882886350508	40
0	434	29.882886350508	41
0	459	31.830856561315	42
0	459	31.830856561315	43
0	484	33.796583366235	44
0	484	33.796583366235	45
0	506	35.374440583055	46
0	506	35.374440583055	47
0	531	37.34822412569	48
0	531	37.34822412569	49
0	556	38.612427429882	50
0	556	38.612427429882	51
0	578	39.955773669415	52
0	578	39.955773669415	53
0	584	41.688916200892	54
0	584	41.688916200892	55
0	598	43.257774196918	56
0	598	43.257774196918	57
0	623	44.439387053138	58
0	623	44.439387053138	59
0	645	45.906472368285	60
0	645	45.906472368285	61
0	666	47.225696160344	62
0	666	47.225696160344	63
0	691	48.745047980573	64
0	691	48.745047980573	65
0	713	50.468412732359	66
0	713	50.468412732359	67
0	738	51.981074434824	68
0	738	51.981074434824	69
0	760	53.116502337742	70
0	760	53.116502337742	71
0	785	54.558406615981	72
0	785	54.558406615981	73
0	810	56.047413916911	74
0	810	56.047413916911	75
0	824	57.994962863277	76
0	824	57.994962863277	77
0	845	59.79792610009	78
0	845	59.79792610009	79
0	870	61.477945246387	80
0	870	61.477945246387	81
0	895	62.8803377623	82
0	895	62.8803377623	83
0	898	64.596045696063	84
0	898	64.596045696063	85
0	923	65.753775761582	86
0	923	65.753775761582	87
0	948	67.628286027469	88
0	948	67.628286027469	89
0	973	69.567172505547	90
0	973	69.567172505547	91
0	998	70.900611769761	92
0	998	70.900611769761	93
0	1001	72.12851206202	94
0	1001	72.12851206202	95
0	1023	73.535214935783	96
0	1023	73.535214935783	97
0	1045	74.934368333667	98
0	1045	74.934368333667	99
0	1059	76.238579159257	100
0	1059	76.238579159257	101
0	1078	77.558428070162	102
0	1078	77.558428070162	103
0	1103	78.911434154146	104
0	1103	78.911434154146	105
0	1128	79.948522122231	106
0	1128	79.948522122231	107
0	1142	81.620991964711	108
0	1142	81.620991964711	109
0	1167	83.480309773822	110
0	1167	83.480309773822	111
0	1181	85.096073132361	112
0	1181	85.096073132361	113
0	1203	87.072554115326	114
0	1203	87.072554115326	115
0	1206	88.762629478591	116
0	1206	88.762629478591	117
0	1231	89.994331787926	118
0	1231	89.994331787926	119
0	1256	91.767166220237	120
0	1256	91.767166220237	121
0	1277	93.405384930203	122
0	1277	93.405384930203	123
0	1302	94.487711027151	124
0	1302	94.487711027151	125
0	1327	95.595776353383	126
0	1327	95.595776353383	127
0	1352	97.045091949988	128
0	1352	97.045091949988	129
0	1377	98.32317699597	130
0	1377	98.32317699597	131
0	1395	99.598760883443	132
0	1395	99.598760883443	133
0	1420	100.77742726065	134
0	1420	100.77742726065	135
0	1441	101.998909314748	136
0	1441	101.998909314748	137
0	1466	103.130123226091	138
0	1466	103.130123226091	139
0	1491	104.381762367559	140
0	1491	104.381762367559	141
0	1516	105.46692224371	142
0	1516	105.46692224371	143
0	1534	106.864912881169	144
0	1534	106.864912881169	145
0	1556	108.429411201391	146
0	1556	108.429411201391	147
0	1581	109.838048420965	148
0	1581	109.838048420965	149
0	1606	110.84405595076	150
0	1606	110.84405595076	151
0	1631	112.742260998233	152
0	1631	112.742260998233	153
0	1656	114.649052882685	154
0	1656	114.649052882685	155
0	1681	116.280699510012	156
0	1681	116.280699510012	157
0	1703	117.942861490535	158
0	1703	117.942861490535	159
0	1728	119.756595733693	160
0	1728	119.756595733693	161
0	1749	121.606565625757	162
0	1749	121.606565625757	163
0	1755	123.191503382638	164
0	1755	123.191503382638	165
0	1777	124.856046132628	166
0	1777	124.856046132628	167
0	1802	125.869060621947	168
0	1802	125.869060621947	169
0	1823	127.780079858961	170
0	1823	127.780079858961	171
0	1845	129.032951846371	172
0	1845	129.032951846371	173
0	1867	130.493694303675	174
0	1867	130.493694303675	175
0	1881	131.892888264615	176
0	1881	131.892888264615	177
0	1899	133.87246547558	178
0	1899	133.87246547558	179
0	1924	135.141863007216	180
0	1924	135.141863007216	181
0	1949	136.841486188468	182
0	1949	136.841486188468	183
0	1967	138.104411587703	184
0	1967	138.104411587703	185
0	1992	139.330137455256	186
0	1992	139.330137455256	187
0	2017	140.641840372353	188
0	2017	140.641840372353	189
0	2042	142.15025057283	190
0	2042	142.15025057283	191
0	2064	143.767711587369	192
0	2064	143.767711587369	193
0	2082	144.831055031044	194
0	2082	144.831055031044	195
0	2104	146.31749577157	196
0	2104	146.31749577157	197
0	2122	148.001713823879	198
0	2122	148.001713823879	199
0	2147	149.055827486914	200
0	2147	149.055827486914	201
0	2172	150.680655620413	202
0	2172	150.680655620413	203
0	2197	151.920101852508	204
0	2197	151.920101852508	205
0	2222	153.434865030346	206
0	2222	153.434865030346	207
0	2244	154.55781980546	208
0	2244	154.55781980546	209
0	2269	156.555304794924	210
0	2269	156.555304794924	211
0	2290	157.689285365285	212
0	2290	157.689285365285	213
0	2312	159.393598769677	214
0	2312	159.393598769677	215
0	2337	160.714163421306	216
0	2337	160.714163421306	217
0	2340	161.918593979093	218
0	2340	161.918593979093	219
0	2365	163.153671618203	220
0	2365	163.153671618203	221
0	2387	164.544888722362	222
0	2387	164.544888722362	223
0	2412	166.295750855818	224
0	2412	166.295750855818	225
0	2434	167.632496855106	226
0	2434	167.632496855106	227
0	2459	169.623412482092	228
0	2459	169.623412482092	229
0	2477	171.213409166202	230
0	2477	171.213409166202	231
0	2480	172.354524627212	232
0	2480	172.354524627212	233
0	2505	173.582122369786	234
0	2505	173.582122369786	235
0	2527	175.364461676334	236
0	2527	175.364461676334	237
0	2552	176.606973494054	238
0	2552	176.606973494054	239
0	2577	177.733686877298	240
0	2577	177.733686877298	241
0	2602	179.088621525443	242
0	2602	179.088621525443	243
0	2624	180.454604870523	244
0	2624	180.454604870523	245
0	2649	181.905248134513	246
0	2649	181.905248134513	247
0	2652	183.844448180054	248
0	2652	183.844448180054	249
0	2677	185.823120982502	250
0	2677	185.823120982502	251
0	2702	187.496535353246	252
0	2702	187.496535353246	253
0	2727	189.261261997628	254
0	2727	189.261261997628	255
0	2749	190.76722971641	256
0	2749	190.76722971641	257
0	2771	191.883927682997	258
0	2771	191.883927682997	259
0	2792	192.888031188515	260
0	2792	192.888031188515	261
0	2814	194.864947348018	262
0	2814	194.864947348018	263
0	2839	196.19922375062	264
0	2839	196.19922375062	265
0	2845	197.492228095536	266
0	2845	197.492228095536	267
0	2870	198.899653109605	268
0	2870	198.899653109605	269
0	2895	200.281495500938	270
0	2895	200.281495500938	271
0	2906	201.841645796434	272
0	2906	201.841645796434	273
0	2928	203.03884214547	274
0	2928	203.03884214547	275
0	2947	204.291683626943	276
0	2947	204.291683626943	277
0	2961	205.625770491431	278
0	2961	205.625770491431	279
0	2964	206.914917200221	280
0	2964	206.914917200221	281
0	2989	208.851997590507	282
0	2989	208.851997590507	283
0	3014	210.121692421729	284
0	3014	210.121692421729	285
0	3036	211.928439238923	286
0	3036	211.928439238923	287
0	3058	213.863592354697	288
0	3058	213.863592354697	289
0	3080	214.879035991034	290
0	3080	214.879035991034	291
0	3105	215.967224632739	292
0	3105	215.967224632739	293
0	3127	217.165443779784	294
0	3127	217.165443779784	295
0	3145	218.330135881784	296
0	3145	218.330135881784	297
0	3170	219.812244334607	298
0	3170	219.812244334607	299
0	3195	221.001831740955	300
0	3195	221.001831740955	301
0	3217	222.973677518427	302
0	3217	222.973677518427	303
0	3242	224.771827798452	304
0	3242	224.771827798452	305
0	3267	226.699408737127	306
0	3267	226.699408737127	307
0	3289	228.270797283039	308
0	3289	228.270797283039	309
0	3314	229.570980594144	310
0	3314	229.570980594144	311
0	3339	230.901096148765	312
0	3339	230.901096148765	313
0	3361	232.363920949282	314
0	3361	232.363920949282	315
0	3375	233.993602760251	316
0	3375	233.993602760251	317
0	3397	235.948369338059	318
0	3397	235.948369338059	319
0	3422	236.960260669117	320
0	3422	236.960260669117	321
0	3447	238.179528580162	322
0	3447	238.179528580162	323
1	4	0.126198958082	0
1	4	0.126198958082	1
1	4	0.126198958082	2
1	22	2.100177179763	3
1	22	2.100177179763	4
1	22	2.100177179763	5
1	54	3.993420537084	6
1	54	3.993420537084	7
1	54	3.993420537084	8
1	61	5.257189344263	9
1	61	5.257189344263	10
1	61	5.257189344263	11
1	86	7.148086432606	12
1	86	7.148086432606	13
1	86	7.148086432606	14
1	101	9.123353252023	15
1	101	9.123353252023	16
1	101	9.123353252023	17
1	130	10.293103531138	18
1	130	10.293103531138	19
1	130	10.293103531138	20
1	150	11.500672618665	21
1	150	11.500672618665	22
1	150	11.500672618665	23
1	172	12.637453120736	24
1	172	12.637453120736	25
1	172	12.637453120736	26
1	190	13.985254530931	27
1	190	13.985254530931	28
1	190	13.985254530931	29
1	203	15.565887168148	30
1	203	15.565887168148	31
1	203	15.565887168148	32
1	228	16.891286267407	33
1	228	16.891286267407	34
1	228	16.891286267407	35
1	247	18.079826747741	36
1	247	18.079826747741	37
1	247	18.079826747741	38
1	266	19.113540055076	39
1	266	19.113540055076	40
1	266	19.113540055076	41
1	298	21.10598610664	42
1	298	21.10598610664	43
1	298	21.10598610664	44
1	312	23.013855700287	45
1	312	23.013855700287	46
1	312	23.013855700287	47
1	338	24.173552446003	48
1	338	24.173552446003	49
1	338	24.173552446003	50
1	362	25.651346745094	51
1	362	25.651346745094	52
1	362	25.651346745094	53
1	387	26.878100746072	54
1	387	26.878100746072	55
1	387	26.878100746072	56
1	413	28.600201439157	57
1	413	28.600201439157	58
1	413	28.600201439157	59
1	441	29.910437664098	60
1	441	29.910437664098	61
1	441	29.910437664098	62
1	463	31.846477187294	63
1	463	31.846477187294	64
1	463	31.846477187294	65
1	487	33.808616900541	66
1	487	33.808616900541	67
1	487	33.808616900541	68
1	516	35.424597976474	69
1	516	35.424597976474	70
1	516	35.424597976474	71
1	535	37.364523545634	72
1	535	37.364523545634	73
1	535	37.364523545634	74
1	559	38.638404440822	75
1	559	38.638404440822	76
1	559	38.638404440822	77
1	594	41.741070591895	78
1	594	41.741070591895	79
1	594	41.741070591895	80
1	601	43.28447981658	81
1	601	43.28447981658	82
1	601	43.28447981658	83
1	626	44.451854795117	84
1	626	44.451854795117	85
1	626	44.451854795117	86
1	673	47.251081111183	87
1	673	47.251081111183	88
1	673	47.251081111183	89
1	695	48.769288025965	90
1	695	48.769288025965	91
1	695	48.769288025965	92
1	717	50.487964735554	93
1	717	50.487964735554	94
1	717	50.487964735554	95
1	742	51.995470423305	96
1	742	51.995470423305	97
1	742	51.995470423305	98
1	763	53.135214971499	99
1	763	53.135214971499	100
1	763	53.135214971499	101
1	795	54.60620974887	102
1	795	54.60620974887	103
1	795	54.60620974887	104
1	820	56.090907411752	105
1	820	56.090907411752	106
1	820	56.090907411752	107
1	827	58.016896505879	108
1	827	58.016896505879	109
1	827	58.016896505879	110
1	866	59.947074070364	111
1	866	59.947074070364	112
1	866	59.947074070364	113
1	880	61.511451048349	114
1	880	61.511451048349	115
1	880	61.511451048349	116
1	901	64.608123710392	117
1	901	64.608123710392	118
1	901	64.608123710392	119
1	934	65.798960824785	120
1	934	65.798960824785	121
1	934	65.798960824785	122
1	951	67.638600407879	123
1	951	67.638600407879	124
1	951	67.638600407879	125
1	987	69.641150056157	126
1	987	69.641150056157	127
1	987	69.641150056157	128
1	1005	72.142918997407	129
1	1005	72.142918997407	130
1	1005	72.142918997407	131
1	1033	73.584386059626	132
1	1033	73.584386059626	133
1	1033	73.584386059626	134
1	1049	74.958812821684	135
1	1049	74.958812821684	136
1	1049	74.958812821684	137
1	1062	76.257854698645	138
1	1062	76.257854698645	139
1	1062	76.257854698645	140
1	1081	77.57520222208	141
1	1081	77.57520222208	142
1	1081	77.57520222208	143
1	1106	78.924354727433	144
1	1106	78.924354727433	145
1	1106	78.924354727433	146
1	1132	79.970131517958	147
1	1132	79.970131517958	148
1	1132	79.970131517958	149
1	1146	81.648735064834	150
1	1146	81.648735064834	151
1	1146	81.648735064834	152
1	1170	83.493346987388	153
1	1170	83.493346987388	154
1	1170	83.493346987388	155
1	1184	85.106664766171	156
1	1184	85.106664766171	157
1	1184	85.106664766171	158
1	1209	88.774956692054	159
1	1209	88.774956692054	160
1	1209	88.774956692054	161
1	1241	90.040116470807	162
1	1241	90.040116470807	163
1	1241	90.040116470807	164
1	1260	91.786257566761	165
1	1260	91.786257566761	166
1	1260	91.786257566761	167
1	1280	93.417615928265	168
1	1280	93.417615928265	169
1	1280	93.417615928265	170
1	1308	94.513201599657	171
1	1308	94.513201599657	172
1	1308	94.513201599657	173
1	1330	95.613708049728	174
1	1330	95.613708049728	175
1	1330	95.613708049728	176
1	1355	97.055129958878	177
1	1355	97.055129958878	178
1	1355	97.055129958878	179
1	1380	98.333815344506	180
1	1380	98.333815344506	181
1	1380	98.333815344506	182
1	1398	99.610898108543	183
1	1398	99.610898108543	184
1	1398	99.610898108543	185
1	1424	100.793724212278	186
1	1424	100.793724212278	187
1	1424	100.793724212278	188
1	1444	102.010657937848	189
1	1444	102.010657937848	190
1	1444	102.010657937848	191
1	1470	103.152187184767	192
1	1470	103.152187184767	193
1	1470	103.152187184767	194
1	1494	104.39736162963	195
1	1494	104.39736162963	196
1	1494	104.39736162963	197
1	1520	105.483969220433	198
1	1520	105.483969220433	199
1	1520	105.483969220433	200
1	1545	106.922647001164	201
1	1545	106.922647001164	202
1	1545	106.922647001164	203
1	1559	108.442174255011	204
1	1559	108.442174255011	205
1	1559	108.442174255011	206
1	1585	109.85756034036	207
1	1585	109.85756034036	208
1	1585	109.85756034036	209
1	1609	110.859963972803	210
1	1609	110.859963972803	211
1	1609	110.859963972803	212
1	1634	112.767030679335	213
1	1634	112.767030679335	214
1	1634	112.767030679335	215
1	1674	114.725293910978	216
1	1674	114.725293910978	217
1	1674	114.725293910978	218
1	1684	116.30830081681	219
1	1684	116.30830081681	220
1	1684	116.30830081681	221
1	1706	117.965634981541	222
1	1706	117.965634981541	223
1	1706	117.965634981541	224
1	1732	119.780503619799	225
1	1732	119.780503619799	226
1	1732	119.780503619799	227
1	1759	123.204052353162	228
1	1759	123.204052353162	229
1	1759	123.204052353162	230
1	1781	124.866716851077	231
1	1781	124.866716851077	232
1	1781	124.866716851077	233
1	1805	125.87950572506	234
1	1805	125.87950572506	235
1	1805	125.87950572506	236
1	1827	127.794088644505	237
1	1827	127.794088644505	238
1	1827	127.794088644505	239
1	1848	129.043691537358	240
1	1848	129.043691537358	241
1	1848	129.043691537358	242
1	1871	130.509461205531	243
1	1871	130.509461205531	244
1	1871	130.509461205531	245
1	1909	133.91133586336	246
1	1909	133.91133586336	247
1	1909	133.91133586336	248
1	1930	135.176904952405	249
1	1930	135.176904952405	250
1	1930	135.176904952405	251
1	1952	136.856535510227	252
1	1952	136.856535510227	253
1	1952	136.856535510227	254
1	1971	138.118848550735	255
1	1971	138.118848550735	256
1	1971	138.118848550735	257
1	1996	139.351187681202	258
1	1996	139.351187681202	259
1	1996	139.351187681202	260
1	2023	140.672643606812	261
1	2023	140.672643606812	262
1	2023	140.672643606812	263
1	2052	142.196064830985	264
1	2052	142.196064830985	265
1	2052	142.196064830985	266
1	2074	143.811069075113	267
1	2074	143.811069075113	268
1	2074	143.811069075113	269
1	2085	144.84379165312	270
1	2085	144.84379165312	271
1	2085	144.84379165312	272
1	2107	146.328166913507	273
1	2107	146.328166913507	274
1	2107	146.328166913507	275
1	2125	148.01311231605	276
1	2125	148.01311231605	277
1	2125	148.01311231605	278
1	2151	149.07624939299	279
1	2151	149.07624939299	280
1	2151	149.07624939299	281
1	2175	150.692064526305	282
1	2175	150.692064526305	283
1	2175	150.692064526305	284
1	2200	151.933164746908	285
1	2200	151.933164746908	286
1	2200	151.933164746908	287
1	2232	153.475703126548	288
1	2232	153.475703126548	289
1	2232	153.475703126548	290
1	2247	154.576543261145	291
1	2247	154.576543261145	292
1	2247	154.576543261145	293
1	2279	156.628174423569	294
1	2279	156.628174423569	295
1	2279	156.628174423569	296
1	2301	157.737793476506	297
1	2301	157.737793476506	298
1	2301	157.737793476506	299
1	2316	159.420498577415	300
1	2316	159.420498577415	301
1	2316	159.420498577415	302
1	2344	161.934785552748	303
1	2344	161.934785552748	304
1	2344	161.934785552748	305
1	2371	163.190053758428	306
1	2371	163.190053758428	307
1	2371	163.190053758428	308
1	2391	164.560468647629	309
1	2391	164.560468647629	310
1	2391	164.560468647629	311
1	2422	166.35396548641	312
1	2422	166.35396548641	313
1	2422	166.35396548641	314
1	2444	167.669083117663	315
1	2444	167.669083117663	316
1	2444	167.669083117663	317
1	2469	169.674269492328	318
1	2469	169.674269492328	319
1	2469	169.674269492328	320
1	2483	172.366095887331	321
1	2483	172.366095887331	322
1	2483	172.366095887331	323
1	2508	173.592188662783	324
1	2508	173.592188662783	325
1	2508	173.592188662783	326
1	2530	175.378649104365	327
1	2530	175.378649104365	328
1	2530	175.378649104365	329
1	2556	176.619774160989	330
1	2556	176.619774160989	331
1	2556	176.619774160989	332
1	2583	177.756504353986	333
1	2583	177.756504353986	334
1	2583	177.756504353986	335
1	2605	179.107892687652	336
1	2605	179.107892687652	337
1	2605	179.107892687652	338
1	2627	180.468675825849	339
1	2627	180.468675825849	340
1	2627	180.468675825849	341
1	2655	183.85714508368	342
1	2655	183.85714508368	343
1	2655	183.85714508368	344
1	2681	185.84301500799	345
1	2681	185.84301500799	346
1	2681	185.84301500799	347
1	2712	187.539367533808	348
1	2712	187.539367533808	349
1	2712	187.539367533808	350
1	2730	189.275025728901	351
1	2730	189.275025728901	352
1	2730	189.275025728901	353
1	2752	190.77971293825	354
1	2752	190.77971293825	355
1	2752	190.77971293825	356
1	2774	191.894279192696	357
1	2774	191.894279192696	358
1	2774	191.894279192696	359
1	2795	192.905445224803	360
1	2795	192.905445224803	361
1	2795	192.905445224803	362
1	2817	194.875879452296	363
1	2817	194.875879452296	364
1	2817	194.875879452296	365
1	2848	197.503786326681	366
1	2848	197.503786326681	367
1	2848	197.503786326681	368
1	2874	198.915519476445	369
1	2874	198.915519476445	370
1	2874	198.915519476445	371
1	2898	200.32985729273	372
1	2898	200.32985729273	373
1	2898	200.32985729273	374
1	2910	201.863390821352	375
1	2910	201.863390821352	376
1	2910	201.863390821352	377
1	2931	203.051376236061	378
1	2931	203.051376236061	379
1	2931	203.051376236061	380
1	2951	204.308492514124	381
1	2951	204.308492514124	382
1	2951	204.308492514124	383
1	2967	206.941256342726	384
1	2967	206.941256342726	385
1	2967	206.941256342726	386
1	2992	208.870180878867	387
1	2992	208.870180878867	388
1	2992	208.870180878867	389
1	3028	210.193797848603	390
1	3028	210.193797848603	391
1	3028	210.193797848603	392
1	3042	211.960380322477	393
1	3042	211.960380322477	394
1	3042	211.960380322477	395
1	3068	213.917766779642	396
1	3068	213.917766779642	397
1	3068	213.917766779642	398
1	3086	214.900546959201	399
1	3086	214.900546959201	400
1	3086	214.900546959201	401
1	3109	215.987069107723	402
1	3109	215.987069107723	403
1	3109	215.987069107723	404
1	3130	217.180200710639	405
1	3130	217.180200710639	406
1	3130	217.180200710639	407
1	3148	218.345224872679	408
1	3148	218.345224872679	409
1	3148	218.345224872679	410
1	3181	219.906914302526	411
1	3181	219.906914302526	412
1	3181	219.906914302526	413
1	3198	221.020933759127	414
1	3198	221.020933759127	415
1	3198	221.020933759127	416
1	3228	223.068252468852	417
1	3228	223.068252468852	418
1	3228	223.068252468852	419
1	3246	224.792629366648	420
1	3246	224.792629366648	421
1	3246	224.792629366648	422
1	3270	226.71250459669	423
1	3270	226.71250459669	424
1	3270	226.71250459669	425
1	3292	228.281766089964	426
1	3292	228.281766089964	427
1	3292	228.281766089964	428
1	3318	229.590800503584	429
1	3318	229.590800503584	430
1	3318	229.590800503584	431
1	3342	230.918699516595	432
1	3342	230.918699516595	433
1	3342	230.918699516595	434
1	3378	234.005245251124	435
1	3378	234.005245251124	436
1	3378	234.005245251124	437
1	3403	235.980661521802	438
1	3403	235.980661521802	439
1	3403	235.980661521802	440
1	3426	236.986338104352	441
1	3426	236.986338104352	442
1	3426	236.986338104352	443
1	3450	238.192959304453	444
1	3450	238.192959304453	445
1	3450	238.192959304453	446
2	8	0.138891997659	0
2	8	0.138891997659	1
2	8	0.138891997659	2
2	27	2.110454876039	3
2	27	2.110454876039	4
2	27	2.110454876039	5
2	66	5.26939021271	6
2	66	5.26939021271	7
2	66	5.26939021271	8
2	94	7.164420858185	9
2	94	7.164420858185	10
2	94	7.164420858185	11
2	106	9.136439540106	12
2	106	9.136439540106	13
2	106	9.136439540106	14
2	137	10.303406075588	15
2	137	10.303406075588	16
2	137	10.303406075588	17
2	155	11.519135801851	18
2	155	11.519135801851	19
2	155	11.519135801851	20
2	177	12.654346845263	21
2	177	12.654346845263	22
2	177	12.654346845263	23
2	212	15.599805172986	24
2	212	15.599805172986	25
2	212	15.599805172986	26
2	232	16.903625384464	27
2	232	16.903625384464	28
2	232	16.903625384464	29
2	252	18.097874732678	30
2	252	18.097874732678	31
2	252	18.097874732678	32
2	276	19.13303201969	33
2	276	19.13303201969	34
2	276	19.13303201969	35
2	305	21.116492785738	36
2	305	21.116492785738	37
2	305	21.116492785738	38
2	316	23.024368823596	39
2	316	23.024368823596	40
2	316	23.024368823596	41
2	344	24.185131070277	42
2	344	24.185131070277	43
2	344	24.185131070277	44
2	370	25.664362055065	45
2	370	25.664362055065	46
2	370	25.664362055065	47
2	402	26.979473235619	48
2	402	26.979473235619	49
2	402	26.979473235619	50
2	419	28.61522465161	51
2	419	28.61522465161	52
2	419	28.61522465161	53
2	448	29.924664844802	54
2	448	29.924664844802	55
2	448	29.924664844802	56
2	470	31.865617877021	57
2	470	31.865617877021	58
2	470	31.865617877021	59
2	499	33.853693610897	60
2	499	33.853693610897	61
2	499	33.853693610897	62
2	520	35.448461790686	63
2	520	35.448461790686	64
2	520	35.448461790686	65
2	542	37.378341772947	66
2	542	37.378341772947	67
2	542	37.378341772947	68
2	563	38.659272853662	69
2	563	38.659272853662	70
2	563	38.659272853662	71
2	606	43.296554715933	72
2	606	43.296554715933	73
2	606	43.296554715933	74
2	630	44.465908710806	75
2	630	44.465908710806	76
2	630	44.465908710806	77
2	659	45.969285423389	78
2	659	45.969285423389	79
2	659	45.969285423389	80
2	681	47.2708795547	81
2	681	47.2708795547	82
2	681	47.2708795547	83
2	705	48.792445587195	84
2	705	48.792445587195	85
2	705	48.792445587195	86
2	727	50.521122293622	87
2	727	50.521122293622	88
2	727	50.521122293622	89
2	756	52.061579279708	90
2	756	52.061579279708	91
2	756	52.061579279708	92
2	767	53.147768933664	93
2	767	53.147768933664	94
2	767	53.147768933664	95
2	803	54.648258077078	96
2	803	54.648258077078	97
2	803	54.648258077078	98
2	834	58.030145576122	99
2	834	58.030145576122	100
2	834	58.030145576122	101
2	859	59.896820830968	102
2	859	59.896820830968	103
2	859	59.896820830968	104
2	885	61.522573907037	105
2	885	61.522573907037	106
2	885	61.522573907037	107
2	912	64.637870176424	108
2	912	64.637870176424	109
2	912	64.637870176424	110
2	941	65.81638320501	111
2	941	65.81638320501	112
2	941	65.81638320501	113
2	966	67.706901025452	114
2	966	67.706901025452	115
2	966	67.706901025452	116
2	988	69.641298308438	117
2	988	69.641298308438	118
2	988	69.641298308438	119
2	1015	72.169866314741	120
2	1015	72.169866314741	121
2	1015	72.169866314741	122
2	1037	73.620714163461	123
2	1037	73.620714163461	124
2	1037	73.620714163461	125
2	1066	76.270034910107	126
2	1066	76.270034910107	127
2	1066	76.270034910107	128
2	1089	77.594709857928	129
2	1089	77.594709857928	130
2	1089	77.594709857928	131
2	1121	78.983642191604	132
2	1121	78.983642191604	133
2	1121	78.983642191604	134
2	1152	81.664230135651	135
2	1152	81.664230135651	136
2	1152	81.664230135651	137
2	1191	85.1188830594	138
2	1191	85.1188830594	139
2	1191	85.1188830594	140
2	1213	88.785676857735	141
2	1213	88.785676857735	142
2	1213	88.785676857735	143
2	1245	90.050602744095	144
2	1245	90.050602744095	145
2	1245	90.050602744095	146
2	1270	91.822217223012	147
2	1270	91.822217223012	148
2	1270	91.822217223012	149
2	1284	93.440380336578	150
2	1284	93.440380336578	151
2	1284	93.440380336578	152
2	1316	94.534803174362	153
2	1316	94.534803174362	154
2	1316	94.534803174362	155
2	1341	95.643510642561	156
2	1341	95.643510642561	157
2	1341	95.643510642561	158
2	1359	97.078180822164	159
2	1359	97.078180822164	160
2	1359	97.078180822164	161
2	1385	98.356661290162	162
2	1385	98.356661290162	163
2	1385	98.356661290162	164
2	1406	99.630413948374	165
2	1406	99.630413948374	166
2	1406	99.630413948374	167
2	1430	100.809705090566	168
2	1430	100.809705090566	169
2	1430	100.809705090566	170
2	1448	102.02755059757	171
2	1448	102.02755059757	172
2	1448	102.02755059757	173
2	1476	103.164173114518	174
2	1476	103.164173114518	175
2	1476	103.164173114518	176
2	1501	104.413859863239	177
2	1501	104.413859863239	178
2	1501	104.413859863239	179
2	1526	105.502220747066	180
2	1526	105.502220747066	181
2	1526	105.502220747066	182
2	1549	106.92577166027	183
2	1549	106.92577166027	184
2	1549	106.92577166027	185
2	1565	108.453756299509	186
2	1565	108.453756299509	187
2	1565	108.453756299509	188
2	1591	109.871060012349	189
2	1591	109.871060012349	190
2	1591	109.871060012349	191
2	1620	110.89743138862	192
2	1620	110.89743138862	193
2	1620	110.89743138862	194
2	1639	112.782576109959	195
2	1639	112.782576109959	196
2	1639	112.782576109959	197
2	1670	114.713261072355	198
2	1670	114.713261072355	199
2	1670	114.713261072355	200
2	1691	116.323863217059	201
2	1691	116.323863217059	202
2	1691	116.323863217059	203
2	1717	118.0162611312	204
2	1717	118.0162611312	205
2	1717	118.0162611312	206
2	1739	119.7911513048	207
2	1739	119.7911513048	208
2	1739	119.7911513048	209
2	1765	123.245617864612	210
2	1765	123.245617864612	211
2	1765	123.245617864612	212
2	1792	124.91558204007	213
2	1792	124.91558204007	214
2	1792	124.91558204007	215
2	1813	125.908247091397	216
2	1813	125.908247091397	217
2	1813	125.908247091397	218
2	1837	127.819115521884	219
2	1837	127.819115521884	220
2	1837	127.819115521884	221
2	1855	129.061191226567	222
2	1855	129.061191226567	223
2	1855	129.061191226567	224
2	1895	131.965898325657	225
2	1895	131.965898325657	226
2	1895	131.965898325657	227
2	1913	133.935642056918	228
2	1913	133.935642056918	229
2	1913	133.935642056918	230
2	1938	135.206476249215	231
2	1938	135.206476249215	232
2	1938	135.206476249215	233
2	1960	136.877665538686	234
2	1960	136.877665538686	235
2	1960	136.877665538686	236
2	1985	138.157746936558	237
2	1985	138.157746936558	238
2	1985	138.157746936558	239
2	2003	139.362036148246	240
2	2003	139.362036148246	241
2	2003	139.362036148246	242
2	2028	140.683050367707	243
2	2028	140.683050367707	244
2	2028	140.683050367707	245
2	2057	142.208980787262	246
2	2057	142.208980787262	247
2	2057	142.208980787262	248
2	2078	143.839484171894	249
2	2078	143.839484171894	250
2	2078	143.839484171894	251
2	2092	144.882268422162	252
2	2092	144.882268422162	253
2	2092	144.882268422162	254
2	2111	146.345033649258	255
2	2111	146.345033649258	256
2	2111	146.345033649258	257
2	2133	148.041243916697	258
2	2133	148.041243916697	259
2	2133	148.041243916697	260
2	2161	149.105562486041	261
2	2161	149.105562486041	262
2	2161	149.105562486041	263
2	2183	150.722031572774	264
2	2183	150.722031572774	265
2	2183	150.722031572774	266
2	2215	151.986465748715	267
2	2215	151.986465748715	268
2	2215	151.986465748715	269
2	2236	153.501229033686	270
2	2236	153.501229033686	271
2	2236	153.501229033686	272
2	2251	154.593618144875	273
2	2251	154.593618144875	274
2	2251	154.593618144875	275
2	2283	156.649988300168	276
2	2283	156.649988300168	277
2	2283	156.649988300168	278
2	2308	157.760375970653	279
2	2308	157.760375970653	280
2	2308	157.760375970653	281
2	2330	159.456405393256	282
2	2330	159.456405393256	283
2	2330	159.456405393256	284
2	2350	161.960925058367	285
2	2350	161.960925058367	286
2	2350	161.960925058367	287
2	2376	163.204056214374	288
2	2376	163.204056214374	289
2	2376	163.204056214374	290
2	2402	164.589293460543	291
2	2402	164.589293460543	292
2	2402	164.589293460543	293
2	2426	166.368590694391	294
2	2426	166.368590694391	295
2	2426	166.368590694391	296
2	2452	167.687552479171	297
2	2452	167.687552479171	298
2	2452	167.687552479171	299
2	2473	169.687060523391	300
2	2473	169.687060523391	301
2	2473	169.687060523391	302
2	2494	172.391279241163	303
2	2494	172.391279241163	304
2	2494	172.391279241163	305
2	2515	173.605720825202	306
2	2515	173.605720825202	307
2	2515	173.605720825202	308
2	2534	175.389347851346	309
2	2534	175.389347851346	310
2	2534	175.389347851346	311
2	2562	176.633197473277	312
2	2562	176.633197473277	313
2	2562	176.633197473277	314
2	2591	177.774410952814	315
2	2591	177.774410952814	316
2	2591	177.774410952814	317
2	2620	179.147666197615	318
2	2620	179.147666197615	319
2	2620	179.147666197615	320
2	2631	180.490376030166	321
2	2631	180.490376030166	322
2	2631	180.490376030166	323
2	2660	183.869512070525	324
2	2660	183.869512070525	325
2	2660	183.869512070525	326
2	2688	185.862511217017	327
2	2688	185.862511217017	328
2	2688	185.862511217017	329
2	2720	187.564701210772	330
2	2720	187.564701210772	331
2	2720	187.564701210772	332
2	2738	189.307663555431	333
2	2738	189.307663555431	334
2	2738	189.307663555431	335
2	2761	190.816581083507	336
2	2761	190.816581083507	337
2	2761	190.816581083507	338
2	2781	191.919019759359	339
2	2781	191.919019759359	340
2	2781	191.919019759359	341
2	2799	192.921373205711	342
2	2799	192.921373205711	343
2	2799	192.921373205711	344
2	2825	194.909067465913	345
2	2825	194.909067465913	346
2	2825	194.909067465913	347
2	2852	197.517046931149	348
2	2852	197.517046931149	349
2	2852	197.517046931149	350
2	2881	198.931485602702	351
2	2881	198.931485602702	352
2	2881	198.931485602702	353
2	2916	201.879959646357	354
2	2916	201.879959646357	355
2	2916	201.879959646357	356
2	2936	203.06811351203	357
2	2936	203.06811351203	358
2	2936	203.06811351203	359
2	2972	206.95566063882	360
2	2972	206.95566063882	361
2	2972	206.95566063882	362
2	3003	208.914506288064	363
2	3003	208.914506288064	364
2	3003	208.914506288064	365
2	3029	210.196997247249	366
2	3029	210.196997247249	367
2	3029	210.196997247249	368
2	3054	211.996230849695	369
2	3054	211.996230849695	370
2	3054	211.996230849695	371
2	3072	213.931224324246	372
2	3072	213.931224324246	373
2	3072	213.931224324246	374
2	3090	214.916343442546	375
2	3090	214.916343442546	376
2	3090	214.916343442546	377
2	3116	216.008845140039	378
2	3116	216.008845140039	379
2	3116	216.008845140039	380
2	3135	217.195649927271	381
2	3135	217.195649927271	382
2	3135	217.195649927271	383
2	3156	218.366196648405	384
2	3156	218.366196648405	385
2	3156	218.366196648405	386
2	3188	219.91921553148	387
2	3188	219.91921553148	388
2	3188	219.91921553148	389
2	3206	221.04163518336	390
2	3206	221.04163518336	391
2	3206	221.04163518336	392
2	3232	223.076079040987	393
2	3232	223.076079040987	394
2	3232	223.076079040987	395
2	3253	224.807336775507	396
2	3253	224.807336775507	397
2	3253	224.807336775507	398
2	3274	226.732196644226	399
2	3274	226.732196644226	400
2	3274	226.732196644226	401
2	3299	228.300787277661	402
2	3299	228.300787277661	403
2	3299	228.300787277661	404
2	3328	229.610434666658	405
2	3328	229.610434666658	406
2	3328	229.610434666658	407
2	3347	230.933563177011	408
2	3347	230.933563177011	409
2	3347	230.933563177011	410
2	3383	234.01568948942	411
2	3383	234.01568948942	412
2	3383	234.01568948942	413
2	3408	235.990993407419	414
2	3408	235.990993407419	415
2	3408	235.990993407419	416
2	3432	237.004130766809	417
2	3432	237.004130766809	418
2	3432	237.004130766809	419
2	3461	238.219215393671	420
2	3461	238.219215393671	421
2	3461	238.219215393671	422
3	12	0.205690100955	0
3	12	0.205690100955	1
3	12	0.205690100955	2
3	35	2.131224152726	3
3	35	2.131224152726	4
3	35	2.131224152726	5
3	50	3.982531741798	6
3	50	3.982531741798	7
3	50	3.982531741798	8
3	69	5.272496020724	9
3	69	5.272496020724	10
3	69	5.272496020724	11
3	87	7.150099692681	12
3	87	7.150099692681	13
3	87	7.150099692681	14
3	105	9.135731105625	15
3	105	9.135731105625	16
3	105	9.135731105625	17
3	125	10.275325180183	18
3	125	10.275325180183	19
3	125	10.275325180183	20
3	151	11.509835404768	21
3	151	11.509835404768	22
3	151	11.509835404768	23
3	196	14.007481408276	24
3	196	14.007481408276	25
3	196	14.007481408276	26
3	207	15.580307469917	27
3	207	15.580307469917	28
3	207	15.580307469917	29
3	233	16.908384065549	30
3	233	16.908384065549	31
3	233	16.908384065549	32
3	251	18.097566656263	33
3	251	18.097566656263	34
3	251	18.097566656263	35
3	269	19.118916564847	36
3	269	19.118916564847	37
3	269	19.118916564847	38
3	293	21.09561947265	39
3	293	21.09561947265	40
3	293	21.09561947265	41
3	317	23.028494069438	42
3	317	23.028494069438	43
3	317	23.028494069438	44
3	345	24.190232224559	45
3	345	24.190232224559	46
3	345	24.190232224559	47
3	369	25.662035279075	48
3	369	25.662035279075	49
3	369	25.662035279075	50
3	394	26.899718129713	51
3	394	26.899718129713	52
3	394	26.899718129713	53
3	424	28.634680221236	54
3	424	28.634680221236	55
3	424	28.634680221236	56
3	440	29.90415136765	57
3	440	29.90415136765	58
3	440	29.90415136765	59
3	469	31.858472239377	60
3	469	31.858472239377	61
3	469	31.858472239377	62
3	491	33.828085203598	63
3	491	33.828085203598	64
3	491	33.828085203598	65
3	512	35.40470731357	66
3	512	35.40470731357	67
3	512	35.40470731357	68
3	541	37.377974213792	69
3	541	37.377974213792	70
3	541	37.377974213792	71
3	567	38.671822061766	72
3	567	38.671822061766	73
3	567	38.671822061766	74
3	590	41.726323658983	75
3	590	41.726323658983	76
3	590	41.726323658983	77
3	609	43.305277679623	78
3	609	43.305277679623	79
3	609	43.305277679623	80
3	631	44.468399410896	81
3	631	44.468399410896	82
3	631	44.468399410896	83
3	651	45.93617872172	84
3	651	45.93617872172	85
3	651	45.93617872172	86
3	672	47.250913276463	87
3	672	47.250913276463	88
3	672	47.250913276463	89
3	698	48.77061369386	90
3	698	48.77061369386	91
3	698	48.77061369386	92
3	720	50.492450395103	93
3	720	50.492450395103	94
3	720	50.492450395103	95
3	748	52.009950558335	96
3	748	52.009950558335	97
3	748	52.009950558335	98
3	768	53.148442482134	99
3	768	53.148442482134	100
3	768	53.148442482134	101
3	791	54.58921816611	102
3	791	54.58921816611	103
3	791	54.58921816611	104
3	816	56.075310424306	105
3	816	56.075310424306	106
3	816	56.075310424306	107
3	839	58.050935704027	108
3	839	58.050935704027	109
3	839	58.050935704027	110
3	851	59.828540551788	111
3	851	59.828540551788	112
3	851	59.828540551788	113
3	876	61.498704362446	114
3	876	61.498704362446	115
3	876	61.498704362446	116
3	908	64.626221854211	117
3	908	64.626221854211	118
3	908	64.626221854211	119
3	929	65.785653776729	120
3	929	65.785653776729	121
3	929	65.785653776729	122
3	956	67.659100160313	123
3	956	67.659100160313	124
3	956	67.659100160313	125
3	979	69.612896613296	126
3	979	69.612896613296	127
3	979	69.612896613296	128
3	1011	72.159492714098	129
3	1011	72.159492714098	130
3	1011	72.159492714098	131
3	1029	73.559306482213	132
3	1029	73.559306482213	133
3	1029	73.559306482213	134
3	1052	74.965210502982	135
3	1052	74.965210502982	136
3	1052	74.965210502982	137
3	1067	76.27322968257	138
3	1067	76.27322968257	139
3	1067	76.27322968257	140
3	1086	77.590996623223	141
3	1086	77.590996623223	142
3	1086	77.590996623223	143
3	1110	78.938101682044	144
3	1110	78.938101682044	145
3	1110	78.938101682044	146
3	1135	79.975932511828	147
3	1135	79.975932511828	148
3	1135	79.975932511828	149
3	1153	81.668224777937	150
3	1153	81.668224777937	151
3	1153	81.668224777937	152
3	1175	83.507709347556	153
3	1175	83.507709347556	154
3	1175	83.507709347556	155
3	1192	85.119074177856	156
3	1192	85.119074177856	157
3	1192	85.119074177856	158
3	1214	88.792248458143	159
3	1214	88.792248458143	160
3	1214	88.792248458143	161
3	1237	90.02420315502	162
3	1237	90.02420315502	163
3	1237	90.02420315502	164
3	1263	91.79513358235	165
3	1263	91.79513358235	166
3	1263	91.79513358235	167
3	1285	93.449915210535	168
3	1285	93.449915210535	169
3	1285	93.449915210535	170
3	1312	94.524365635121	171
3	1312	94.524365635121	172
3	1312	94.524365635121	173
3	1335	95.625650562453	174
3	1335	95.625650562453	175
3	1335	95.625650562453	176
3	1360	97.084641997502	177
3	1360	97.084641997502	178
3	1360	97.084641997502	179
3	1384	98.348250039056	180
3	1384	98.348250039056	181
3	1384	98.348250039056	182
3	1405	99.624325046498	183
3	1405	99.624325046498	184
3	1405	99.624325046498	185
3	1431	100.813461469799	186
3	1431	100.813461469799	187
3	1431	100.813461469799	188
3	1449	102.027683866519	189
3	1449	102.027683866519	190
3	1449	102.027683866519	191
3	1481	103.177337989446	192
3	1481	103.177337989446	193
3	1481	103.177337989446	194
3	1502	104.423591397189	195
3	1502	104.423591397189	196
3	1502	104.423591397189	197
3	1530	105.517047192183	198
3	1530	105.517047192183	199
3	1530	105.517047192183	200
3	1540	106.900747478308	201
3	1540	106.900747478308	202
3	1540	106.900747478308	203
3	1564	108.45319208004	204
3	1564	108.45319208004	205
3	1564	108.45319208004	206
3	1596	109.884077429829	207
3	1596	109.884077429829	208
3	1596	109.884077429829	209
3	1613	110.875939279981	210
3	1613	110.875939279981	211
3	1613	110.875939279981	212
3	1638	112.778911301536	213
3	1638	112.778911301536	214
3	1638	112.778911301536	215
3	1662	114.684423320309	216
3	1662	114.684423320309	217
3	1662	114.684423320309	218
3	1695	116.334411821902	219
3	1695	116.334411821902	220
3	1695	116.334411821902	221
3	1710	117.975742337976	222
3	1710	117.975742337976	223
3	1710	117.975742337976	224
3	1735	119.789080806272	225
3	1735	119.789080806272	226
3	1735	119.789080806272	227
3	1773	123.287555221918	228
3	1773	123.287555221918	229
3	1773	123.287555221918	230
3	1787	124.880959995369	231
3	1787	124.880959995369	232
3	1787	124.880959995369	233
3	1809	125.890176092895	234
3	1809	125.890176092895	235
3	1809	125.890176092895	236
3	1833	127.807152520505	237
3	1833	127.807152520505	238
3	1833	127.807152520505	239
3	1859	129.075406927463	240
3	1859	129.075406927463	241
3	1859	129.075406927463	242
3	1877	130.529767795768	243
3	1877	130.529767795768	244
3	1877	130.529767795768	245
3	1887	131.932359622613	246
3	1887	131.932359622613	247
3	1887	131.932359622613	248
3	1905	133.897751825261	249
3	1905	133.897751825261	250
3	1905	133.897751825261	251
3	1934	135.190470356883	252
3	1934	135.190470356883	253
3	1934	135.190470356883	254
3	1957	136.869021773588	255
3	1957	136.869021773588	256
3	1957	136.869021773588	257
3	1974	138.12673331717	258
3	1974	138.12673331717	259
3	1974	138.12673331717	260
3	1999	139.354409473147	261
3	1999	139.354409473147	262
3	1999	139.354409473147	263
3	2024	140.67933429292	264
3	2024	140.67933429292	265
3	2024	140.67933429292	266
3	2048	142.185909597093	267
3	2048	142.185909597093	268
3	2048	142.185909597093	269
3	2070	143.794661403284	270
3	2070	143.794661403284	271
3	2070	143.794661403284	272
3	2093	144.891553819816	273
3	2093	144.891553819816	274
3	2093	144.891553819816	275
3	2112	146.347574242281	276
3	2112	146.347574242281	277
3	2112	146.347574242281	278
3	2130	148.03513118873	279
3	2130	148.03513118873	280
3	2130	148.03513118873	281
3	2154	149.084065093165	282
3	2154	149.084065093165	283
3	2154	149.084065093165	284
3	2182	150.720853363905	285
3	2182	150.720853363905	286
3	2182	150.720853363905	287
3	2204	151.953980205087	288
3	2204	151.953980205087	289
3	2204	151.953980205087	290
3	2228	153.456791445844	291
3	2228	153.456791445844	292
3	2228	153.456791445844	293
3	2255	154.61298689954	294
3	2255	154.61298689954	295
3	2255	154.61298689954	296
3	2275	156.616794435814	297
3	2275	156.616794435814	298
3	2275	156.616794435814	299
3	2296	157.726156742573	300
3	2296	157.726156742573	301
3	2296	157.726156742573	302
3	2319	159.429575983722	303
3	2319	159.429575983722	304
3	2319	159.429575983722	305
3	2351	161.965063184189	306
3	2351	161.965063184189	307
3	2351	161.965063184189	308
3	2372	163.194669180403	309
3	2372	163.194669180403	310
3	2372	163.194669180403	311
3	2394	164.567869070959	312
3	2394	164.567869070959	313
3	2394	164.567869070959	314
3	2418	166.339302120435	315
3	2418	166.339302120435	316
3	2418	166.339302120435	317
3	2440	167.65522448692	318
3	2440	167.65522448692	319
3	2440	167.65522448692	320
3	2465	169.657237747671	321
3	2465	169.657237747671	322
3	2465	169.657237747671	323
3	2490	172.377481435306	324
3	2490	172.377481435306	325
3	2490	172.377481435306	326
3	2516	173.607021796256	327
3	2516	173.607021796256	328
3	2516	173.607021796256	329
3	2536	175.392617668766	330
3	2536	175.392617668766	331
3	2536	175.392617668766	332
3	2563	176.636127124309	333
3	2563	176.636127124309	334
3	2563	176.636127124309	335
3	2584	177.758750457559	336
3	2584	177.758750457559	337
3	2584	177.758750457559	338
3	2609	179.119923171819	339
3	2609	179.119923171819	340
3	2609	179.119923171819	341
3	2635	180.504682341912	342
3	2635	180.504682341912	343
3	2635	180.504682341912	344
3	2663	183.879391498686	345
3	2663	183.879391498686	346
3	2663	183.879391498686	347
3	2687	185.85759098942	348
3	2687	185.85759098942	349
3	2687	185.85759098942	350
3	2708	187.521713962309	351
3	2708	187.521713962309	352
3	2708	187.521713962309	353
3	2735	189.302921435854	354
3	2735	189.302921435854	355
3	2735	189.302921435854	356
3	2756	190.794567695707	357
3	2756	190.794567695707	358
3	2756	190.794567695707	359
3	2782	191.925879800653	360
3	2782	191.925879800653	361
3	2782	191.925879800653	362
3	2804	192.93722908615	363
3	2804	192.93722908615	364
3	2804	192.93722908615	365
3	2824	194.900784451416	366
3	2824	194.900784451416	367
3	2824	194.900784451416	368
3	2853	197.520267126552	369
3	2853	197.520267126552	370
3	2853	197.520267126552	371
3	2877	198.92172684485	372
3	2877	198.92172684485	373
3	2877	198.92172684485	374
3	2902	200.341289133728	375
3	2902	200.341289133728	376
3	2902	200.341289133728	377
3	2917	201.889853306734	378
3	2917	201.889853306734	379
3	2917	201.889853306734	380
3	2935	203.061478481533	381
3	2935	203.061478481533	382
3	2935	203.061478481533	383
3	2957	204.321680252075	384
3	2957	204.321680252075	385
3	2957	204.321680252075	386
3	2979	206.969194520368	387
3	2979	206.969194520368	388
3	2979	206.969194520368	389
3	2999	208.886803485489	390
3	2999	208.886803485489	391
3	2999	208.886803485489	392
3	3020	210.172200094202	393
3	3020	210.172200094202	394
3	3020	210.172200094202	395
3	3043	211.96185587812	396
3	3043	211.96185587812	397
3	3043	211.96185587812	398
3	3064	213.892616300912	399
3	3064	213.892616300912	400
3	3064	213.892616300912	401
3	3091	214.923538449667	402
3	3091	214.923538449667	403
3	3091	214.923538449667	404
3	3115	215.999458610918	405
3	3115	215.999458610918	406
3	3115	215.999458610918	407
3	3134	217.1954049545	408
3	3134	217.1954049545	409
3	3134	217.1954049545	410
3	3155	218.363621701264	411
3	3155	218.363621701264	412
3	3155	218.363621701264	413
3	3176	219.883817910991	414
3	3176	219.883817910991	415
3	3176	219.883817910991	416
3	3205	221.03739809594	417
3	3205	221.03739809594	418
3	3205	221.03739809594	419
3	3223	223.045206883688	420
3	3223	223.045206883688	421
3	3223	223.045206883688	422
3	3252	224.805307269753	423
3	3252	224.805307269753	424
3	3252	224.805307269753	425
3	3282	226.749558224822	426
3	3282	226.749558224822	427
3	3282	226.749558224822	428
3	3300	228.302275692842	429
3	3300	228.302275692842	430
3	3300	228.302275692842	431
3	3321	229.596607331975	432
3	3321	229.596607331975	433
3	3321	229.596607331975	434
3	3353	230.952138876079	435
3	3353	230.952138876079	436
3	3353	230.952138876079	437
3	3367	232.396757949484	438
3	3367	232.396757949484	439
3	3367	232.396757949484	440
3	3393	234.052642038259	441
3	3393	234.052642038259	442
3	3393	234.052642038259	443
3	3404	235.98376566958	444
3	3404	235.98376566958	445
3	3404	235.98376566958	446
3	3438	237.025494516789	447
3	3438	237.025494516789	448
3	3438	237.025494516789	449
3	3455	238.204919116751	450
3	3455	238.204919116751	451
3	3455	238.204919116751	452
4	16	0.226769034413	0
4	16	0.226769034413	1
4	23	2.103853884743	2
4	23	2.103853884743	3
4	47	3.950031183106	4
4	47	3.950031183106	5
4	62	5.261620477662	6
4	62	5.261620477662	7
4	83	7.137587804126	8
4	83	7.137587804126	9
4	113	9.154511164128	10
4	113	9.154511164128	11
4	122	10.258531561946	12
4	122	10.258531561946	13
4	147	11.489271284632	14
4	147	11.489271284632	15
4	173	12.644793100778	16
4	173	12.644793100778	17
4	189	13.982715059377	18
4	189	13.982715059377	19
4	211	15.596607178636	20
4	211	15.596607178636	21
4	259	18.110828374742	22
4	259	18.110828374742	23
4	265	19.105495041444	24
4	265	19.105495041444	25
4	290	21.076039775496	26
4	290	21.076039775496	27
4	327	23.048168744295	28
4	327	23.048168744295	29
4	337	24.172643062453	30
4	337	24.172643062453	31
4	363	25.651577980357	32
4	363	25.651577980357	33
4	388	26.887148509856	34
4	388	26.887148509856	35
4	412	28.598618772116	36
4	412	28.598618772116	37
4	437	29.893037679576	38
4	437	29.893037679576	39
4	462	31.845107453051	40
4	462	31.845107453051	41
4	509	35.386157438216	42
4	509	35.386157438216	43
4	534	37.362684125161	44
4	534	37.362684125161	45
4	575	38.701125241312	46
4	575	38.701125241312	47
4	581	39.971640086321	48
4	581	39.971640086321	49
4	587	41.715617187904	50
4	587	41.715617187904	51
4	602	43.288565544917	52
4	602	43.288565544917	53
4	642	44.489581866939	54
4	642	44.489581866939	55
4	648	45.923726118137	56
4	648	45.923726118137	57
4	669	47.235921995597	58
4	669	47.235921995597	59
4	694	48.760261864394	60
4	694	48.760261864394	61
4	716	50.478880097356	62
4	716	50.478880097356	63
4	741	51.991340118849	64
4	741	51.991340118849	65
4	777	53.172308780406	66
4	777	53.172308780406	67
4	788	54.577406667992	68
4	788	54.577406667992	69
4	813	56.064460573975	70
4	813	56.064460573975	71
4	828	58.01949624232	72
4	828	58.01949624232	73
4	848	59.814061770131	74
4	848	59.814061770131	75
4	873	61.488322898966	76
4	873	61.488322898966	77
4	902	64.615787434518	78
4	902	64.615787434518	79
4	926	65.766845055824	80
4	926	65.766845055824	81
4	955	67.650904824677	82
4	955	67.650904824677	83
4	976	69.585770568398	84
4	976	69.585770568398	85
4	1004	72.14015086102	86
4	1004	72.14015086102	87
4	1026	73.547813188435	88
4	1026	73.547813188435	89
4	1048	74.954228009952	90
4	1048	74.954228009952	91
4	1082	77.581524781985	92
4	1082	77.581524781985	93
4	1111	78.941852734247	94
4	1111	78.941852734247	95
4	1131	79.964486806221	96
4	1131	79.964486806221	97
4	1145	81.641466049214	98
4	1145	81.641466049214	99
4	1171	83.497738946034	100
4	1171	83.497738946034	101
4	1185	85.107853512886	102
4	1185	85.107853512886	103
4	1218	88.797558894289	104
4	1218	88.797558894289	105
4	1234	90.006595802972	106
4	1234	90.006595802972	107
4	1259	91.780668638336	108
4	1259	91.780668638336	109
4	1299	93.472663381468	110
4	1299	93.472663381468	111
4	1305	94.498838055357	112
4	1305	94.498838055357	113
4	1334	95.624479389348	114
4	1334	95.624479389348	115
4	1372	97.099340049075	116
4	1372	97.099340049075	117
4	1389	98.359537094619	118
4	1389	98.359537094619	119
4	1399	99.611008672465	120
4	1399	99.611008672465	121
4	1423	100.791207205012	122
4	1423	100.791207205012	123
4	1450	102.029317810729	124
4	1450	102.029317810729	125
4	1469	103.147894188196	126
4	1469	103.147894188196	127
4	1495	104.400616703309	128
4	1495	104.400616703309	129
4	1519	105.479023920939	130
4	1519	105.479023920939	131
4	1537	106.875053906508	132
4	1537	106.875053906508	133
4	1560	108.444635494884	134
4	1560	108.444635494884	135
4	1584	109.848365356635	136
4	1584	109.848365356635	137
4	1614	110.879549545481	138
4	1614	110.879549545481	139
4	1643	112.791833505572	140
4	1643	112.791833505572	141
4	1659	114.663973190064	142
4	1659	114.663973190064	143
4	1685	116.309439820405	144
4	1685	116.309439820405	145
4	1714	117.996101125577	146
4	1714	117.996101125577	147
4	1731	119.775255525717	148
4	1731	119.775255525717	149
4	1752	121.61991509406	150
4	1752	121.61991509406	151
4	1758	123.202352944943	152
4	1758	123.202352944943	153
4	1780	124.866139760186	154
4	1780	124.866139760186	155
4	1814	125.909169778174	156
4	1814	125.909169778174	157
4	1826	127.791140708378	158
4	1826	127.791140708378	159
4	1849	129.047033762034	160
4	1849	129.047033762034	161
4	1870	130.508588588998	162
4	1870	130.508588588998	163
4	1884	131.907983506148	164
4	1884	131.907983506148	165
4	1902	133.886095953802	166
4	1902	133.886095953802	167
4	1927	135.152268401543	168
4	1927	135.152268401543	169
4	1953	136.864975329162	170
4	1953	136.864975329162	171
4	1970	138.115942626665	172
4	1970	138.115942626665	173
4	1995	139.344082220362	174
4	1995	139.344082220362	175
4	2020	140.654733205556	176
4	2020	140.654733205556	177
4	2045	142.169857152403	178
4	2045	142.169857152403	179
4	2067	143.783809919649	180
4	2067	143.783809919649	181
4	2089	144.871519768472	182
4	2089	144.871519768472	183
4	2113	146.347930714531	184
4	2113	146.347930714531	185
4	2129	148.030193681886	186
4	2129	148.030193681886	187
4	2150	149.066572838125	188
4	2150	149.066572838125	189
4	2176	150.692421175117	190
4	2176	150.692421175117	191
4	2209	151.969674296471	192
4	2209	151.969674296471	193
4	2225	153.445436275557	194
4	2225	153.445436275557	195
4	2262	154.626629482895	196
4	2262	154.626629482895	197
4	2272	156.60073816123	198
4	2272	156.60073816123	199
4	2293	157.706517657164	200
4	2293	157.706517657164	201
4	2315	159.413105673861	202
4	2315	159.413105673861	203
4	2343	161.930807823858	204
4	2343	161.930807823858	205
4	2368	163.164193967165	206
4	2368	163.164193967165	207
4	2390	164.556227685325	208
4	2390	164.556227685325	209
4	2415	166.310535029037	210
4	2415	166.310535029037	211
4	2437	167.644113060596	212
4	2437	167.644113060596	213
4	2462	169.644988365902	214
4	2462	169.644988365902	215
4	2484	172.366799077882	216
4	2484	172.366799077882	217
4	2509	173.592215535334	218
4	2509	173.592215535334	219
4	2535	175.391046050181	220
4	2535	175.391046050181	221
4	2555	176.617800156024	222
4	2555	176.617800156024	223
4	2580	177.744483017217	224
4	2580	177.744483017217	225
4	2613	179.130515307298	226
4	2613	179.130515307298	227
4	2646	180.526739854952	228
4	2646	180.526739854952	229
4	2656	183.865253890824	230
4	2656	183.865253890824	231
4	2680	185.839347234045	232
4	2680	185.839347234045	233
4	2705	187.508467733613	234
4	2705	187.508467733613	235
4	2734	189.295666665449	236
4	2734	189.295666665449	237
4	2760	190.808824805731	238
4	2760	190.808824805731	239
4	2778	191.905428832413	240
4	2778	191.905428832413	241
4	2800	192.928383233571	242
4	2800	192.928383233571	243
4	2818	194.876991861335	244
4	2818	194.876991861335	245
4	2842	196.212973320525	246
4	2842	196.212973320525	247
4	2854	197.523912973434	248
4	2854	197.523912973434	249
4	2873	198.910724302139	250
4	2873	198.910724302139	251
4	2909	201.860174329279	252
4	2909	201.860174329279	253
4	2950	204.304826002278	254
4	2950	204.304826002278	255
4	2971	206.952728012919	256
4	2971	206.952728012919	257
4	2993	208.874816263751	258
4	2993	208.874816263751	259
4	3017	210.159453459651	260
4	3017	210.159453459651	261
4	3039	211.94185373185	262
4	3039	211.94185373185	263
4	3061	213.878735409194	264
4	3061	213.878735409194	265
4	3083	214.890318881202	266
4	3083	214.890318881202	267
4	3108	215.981298108659	268
4	3108	215.981298108659	269
4	3142	217.214109416505	270
4	3142	217.214109416505	271
4	3149	218.351535799012	272
4	3149	218.351535799012	273
4	3173	219.841228082497	274
4	3173	219.841228082497	275
4	3199	221.02355295364	276
4	3199	221.02355295364	277
4	3220	223.023529080941	278
4	3220	223.023529080941	279
4	3245	224.790459420251	280
4	3245	224.790459420251	281
4	3275	226.738672078325	282
4	3275	226.738672078325	283
4	3293	228.288586835955	284
4	3293	228.288586835955	285
4	3317	229.583966402029	286
4	3317	229.583966402029	287
4	3343	230.928576046519	288
4	3343	230.928576046519	289
4	3364	232.375033198577	290
4	3364	232.375033198577	291
4	3379	234.014586748588	292
4	3379	234.014586748588	293
4	3400	235.964112970032	294
4	3400	235.964112970032	295
4	3425	236.977240156153	296
4	3425	236.977240156153	297
4	3454	238.202973464593	298
4	3454	238.202973464593	299
5	33	2.126088328352	0
5	33	2.126088328352	1
5	33	2.126088328352	2
5	76	5.294683294297	3
5	76	5.294683294297	4
5	76	5.294683294297	5
5	129	10.293001655127	6
5	129	10.293001655127	7
5	129	10.293001655127	8
5	159	11.521185757205	9
5	159	11.521185757205	10
5	159	11.521185757205	11
5	218	15.61053175624	12
5	218	15.61053175624	13
5	218	15.61053175624	14
5	240	16.920941393352	15
5	240	16.920941393352	16
5	240	16.920941393352	17
5	277	19.142854709282	18
5	277	19.142854709282	19
5	277	19.142854709282	20
5	297	21.105745827394	21
5	297	21.105745827394	22
5	297	21.105745827394	23
5	328	23.056153869609	24
5	328	23.056153869609	25
5	328	23.056153869609	26
5	353	24.206434026997	27
5	353	24.206434026997	28
5	353	24.206434026997	29
5	377	25.682236827244	30
5	377	25.682236827244	31
5	377	25.682236827244	32
5	398	26.939480626927	33
5	398	26.939480626927	34
5	398	26.939480626927	35
5	430	28.651725582523	36
5	430	28.651725582523	37
5	430	28.651725582523	38
5	455	29.957325471958	39
5	455	29.957325471958	40
5	455	29.957325471958	41
5	477	31.877473495496	42
5	477	31.877473495496	43
5	477	31.877473495496	44
5	495	33.838595095058	45
5	495	33.838595095058	46
5	495	33.838595095058	47
5	527	35.474039729945	48
5	527	35.474039729945	49
5	527	35.474039729945	50
5	549	37.393599742104	51
5	549	37.393599742104	52
5	549	37.393599742104	53
5	571	38.68932378087	54
5	571	38.68932378087	55
5	571	38.68932378087	56
5	613	43.309104153973	57
5	613	43.309104153973	58
5	613	43.309104153973	59
5	638	44.478969976137	60
5	638	44.478969976137	61
5	638	44.478969976137	62
5	655	45.957586826106	63
5	655	45.957586826106	64
5	655	45.957586826106	65
5	680	47.265253794555	66
5	680	47.265253794555	67
5	680	47.265253794555	68
5	709	48.813603209091	69
5	709	48.813603209091	70
5	709	48.813603209091	71
5	732	50.539235871151	72
5	732	50.539235871151	73
5	732	50.539235871151	74
5	752	52.039780696593	75
5	752	52.039780696593	76
5	752	52.039780696593	77
5	775	53.163874938978	78
5	775	53.163874938978	79
5	775	53.163874938978	80
5	796	54.606374987555	81
5	796	54.606374987555	82
5	796	54.606374987555	83
5	855	59.881924718037	84
5	855	59.881924718037	85
5	855	59.881924718037	86
5	881	61.520355605239	87
5	881	61.520355605239	88
5	881	61.520355605239	89
5	919	64.719957898662	90
5	919	64.719957898662	91
5	919	64.719957898662	92
5	933	65.79875494468	93
5	933	65.79875494468	94
5	933	65.79875494468	95
5	962	67.688724878058	96
5	962	67.688724878058	97
5	962	67.688724878058	98
5	983	69.628456147109	99
5	983	69.628456147109	100
5	983	69.628456147109	101
5	1019	72.18159518963	102
5	1019	72.18159518963	103
5	1019	72.18159518963	104
5	1041	73.636740727946	105
5	1041	73.636740727946	106
5	1041	73.636740727946	107
5	1074	76.289838059415	108
5	1074	76.289838059415	109
5	1074	76.289838059415	110
5	1096	77.604751046183	111
5	1096	77.604751046183	112
5	1096	77.604751046183	113
5	1117	78.968587141734	114
5	1117	78.968587141734	115
5	1117	78.968587141734	116
5	1160	81.678575413747	117
5	1160	81.678575413747	118
5	1160	81.678575413747	119
5	1199	85.129152947718	120
5	1199	85.129152947718	121
5	1199	85.129152947718	122
5	1219	88.801391569864	123
5	1219	88.801391569864	124
5	1219	88.801391569864	125
5	1249	90.062969242501	126
5	1249	90.062969242501	127
5	1249	90.062969242501	128
5	1289	93.451797828864	129
5	1289	93.451797828864	130
5	1289	93.451797828864	131
5	1317	94.535084849145	132
5	1317	94.535084849145	133
5	1317	94.535084849145	134
5	1346	95.667729730847	135
5	1346	95.667729730847	136
5	1346	95.667729730847	137
5	1364	97.088513283007	138
5	1364	97.088513283007	139
5	1364	97.088513283007	140
5	1410	99.640197022816	141
5	1410	99.640197022816	142
5	1410	99.640197022816	143
5	1462	102.066289339001	144
5	1462	102.066289339001	145
5	1462	102.066289339001	146
5	1480	103.174982119795	147
5	1480	103.174982119795	148
5	1480	103.174982119795	149
5	1506	104.427832858529	150
5	1506	104.427832858529	151
5	1506	104.427832858529	152
5	1544	106.91420481558	153
5	1544	106.91420481558	154
5	1544	106.91420481558	155
5	1575	108.469862356352	156
5	1575	108.469862356352	157
5	1575	108.469862356352	158
5	1595	109.881812258642	159
5	1595	109.881812258642	160
5	1595	109.881812258642	161
5	1624	110.910914949976	162
5	1624	110.910914949976	163
5	1624	110.910914949976	164
5	1648	112.798103861861	165
5	1648	112.798103861861	166
5	1648	112.798103861861	167
5	1666	114.696042003424	168
5	1666	114.696042003424	169
5	1666	114.696042003424	170
5	1696	116.340988827165	171
5	1696	116.340988827165	172
5	1696	116.340988827165	173
5	1721	118.032584772621	174
5	1721	118.032584772621	175
5	1721	118.032584772621	176
5	1769	123.270096713677	177
5	1769	123.270096713677	178
5	1769	123.270096713677	179
5	1791	124.905850362028	180
5	1791	124.905850362028	181
5	1791	124.905850362028	182
5	1838	127.824671592682	183
5	1838	127.824671592682	184
5	1838	127.824671592682	185
5	1863	129.105307767774	186
5	1863	129.105307767774	187
5	1863	129.105307767774	188
5	1891	131.946518210445	189
5	1891	131.946518210445	190
5	1891	131.946518210445	191
5	1918	133.953804520008	192
5	1918	133.953804520008	193
5	1918	133.953804520008	194
5	1939	135.216235844736	195
5	1939	135.216235844736	196
5	1939	135.216235844736	197
5	1981	138.14103698365	198
5	1981	138.14103698365	199
5	1981	138.14103698365	200
5	2007	139.366040804378	201
5	2007	139.366040804378	202
5	2007	139.366040804378	203
5	2035	140.693587677137	204
5	2035	140.693587677137	205
5	2035	140.693587677137	206
5	2053	142.199108019903	207
5	2053	142.199108019903	208
5	2053	142.199108019903	209
5	2097	144.89751979295	210
5	2097	144.89751979295	211
5	2097	144.89751979295	212
5	2137	148.048878464968	213
5	2137	148.048878464968	214
5	2137	148.048878464968	215
5	2165	149.115585689438	216
5	2165	149.115585689438	217
5	2165	149.115585689438	218
5	2190	150.736154297633	219
5	2190	150.736154297633	220
5	2190	150.736154297633	221
5	2208	151.965955067991	222
5	2208	151.965955067991	223
5	2208	151.965955067991	224
5	2240	153.514843692979	225
5	2240	153.514843692979	226
5	2240	153.514843692979	227
5	2263	154.630356349822	228
5	2263	154.630356349822	229
5	2263	154.630356349822	230
5	2300	157.73769032759	231
5	2300	157.73769032759	232
5	2300	157.73769032759	233
5	2326	159.444250566485	234
5	2326	159.444250566485	235
5	2326	159.444250566485	236
5	2359	161.990352861332	237
5	2359	161.990352861332	238
5	2359	161.990352861332	239
5	2383	163.227617428061	240
5	2383	163.227617428061	241
5	2383	163.227617428061	242
5	2401	164.587764128179	243
5	2401	164.587764128179	244
5	2401	164.587764128179	245
5	2430	166.388656096538	246
5	2430	166.388656096538	247
5	2430	166.388656096538	248
5	2445	167.670967393889	249
5	2445	167.670967393889	250
5	2445	167.670967393889	251
5	2501	172.426622915432	252
5	2501	172.426622915432	253
5	2501	172.426622915432	254
5	2523	173.628100438481	255
5	2523	173.628100438481	256
5	2523	173.628100438481	257
5	2545	175.404848610206	258
5	2545	175.404848610206	259
5	2545	175.404848610206	260
5	2573	176.654541224471	261
5	2573	176.654541224471	262
5	2573	176.654541224471	263
5	2592	177.775361652461	264
5	2592	177.775361652461	265
5	2592	177.775361652461	266
5	2614	179.131056238685	267
5	2614	179.131056238685	268
5	2614	179.131056238685	269
5	2637	180.507359096473	270
5	2637	180.507359096473	271
5	2637	180.507359096473	272
5	2668	183.887233708561	273
5	2668	183.887233708561	274
5	2668	183.887233708561	275
5	2695	185.876676410842	276
5	2695	185.876676410842	277
5	2695	185.876676410842	278
5	2713	187.544136186435	279
5	2713	187.544136186435	280
5	2713	187.544136186435	281
5	2742	189.314425588075	282
5	2742	189.314425588075	283
5	2742	189.314425588075	284
5	2767	190.8356691073	285
5	2767	190.8356691073	286
5	2767	190.8356691073	287
5	2807	192.939964185087	288
5	2807	192.939964185087	289
5	2807	192.939964185087	290
5	2832	194.935690204098	291
5	2832	194.935690204098	292
5	2832	194.935690204098	293
5	2866	197.554725280424	294
5	2866	197.554725280424	295
5	2866	197.554725280424	296
5	2885	198.939555425424	297
5	2885	198.939555425424	298
5	2885	198.939555425424	299
5	2924	201.900255938419	300
5	2924	201.900255938419	301
5	2924	201.900255938419	302
5	2943	203.08842988821	303
5	2943	203.08842988821	304
5	2943	203.08842988821	305
5	2980	206.973677579194	306
5	2980	206.973677579194	307
5	2980	206.973677579194	308
5	3007	208.925118206364	309
5	3007	208.925118206364	310
5	3007	208.925118206364	311
5	3024	210.183161918058	312
5	3024	210.183161918058	313
5	3024	210.183161918058	314
5	3050	211.979424460499	315
5	3050	211.979424460499	316
5	3050	211.979424460499	317
5	3076	213.942144804831	318
5	3076	213.942144804831	319
5	3076	213.942144804831	320
5	3095	214.926618787027	321
5	3095	214.926618787027	322
5	3095	214.926618787027	323
5	3123	216.026973449333	324
5	3123	216.026973449333	325
5	3123	216.026973449333	326
5	3163	218.383433222826	327
5	3163	218.383433222826	328
5	3163	218.383433222826	329
5	3180	219.905119496061	330
5	3180	219.905119496061	331
5	3180	219.905119496061	332
5	3213	221.066788580122	333
5	3213	221.066788580122	334
5	3213	221.066788580122	335
5	3227	223.06570228124	336
5	3227	223.06570228124	337
5	3227	223.06570228124	338
5	3261	224.825373390762	339
5	3261	224.825373390762	340
5	3261	224.825373390762	341
5	3279	226.742585406767	342
5	3279	226.742585406767	343
5	3279	226.742585406767	344
5	3310	228.355458655758	345
5	3310	228.355458655758	346
5	3310	228.355458655758	347
5	3329	229.614398726472	348
5	3329	229.614398726472	349
5	3329	229.614398726472	350
5	3354	230.957827068119	351
5	3354	230.957827068119	352
5	3354	230.957827068119	353
5	3371	232.408564236451	354
5	3371	232.408564236451	355
5	3371	232.408564236451	356
5	3389	234.041732642079	357
5	3389	234.041732642079	358
5	3389	234.041732642079	359
5	3415	236.003993898039	360
5	3415	236.003993898039	361
5	3415	236.003993898039	362
5	3436	237.019238121899	363
5	3436	237.019238121899	364
5	3436	237.019238121899	365
5	3465	238.239678481603	366
5	3465	238.239678481603	367
5	3465	238.239678481603	368
6	34	2.126565108149	0
6	34	2.126565108149	1
6	114	9.155957121358	2
6	114	9.155957121358	3
6	141	10.336778038989	4
6	141	10.336778038989	5
6	166	11.538908749084	6
6	166	11.538908749084	7
6	183	12.694202538156	8
6	183	12.694202538156	9
6	219	15.617819736459	10
6	219	15.617819736459	11
6	281	19.15115673907	12
6	281	19.15115673907	13
6	321	23.037111189141	14
6	321	23.037111189141	15
6	352	24.203137240992	16
6	352	24.203137240992	17
6	381	25.692665719961	18
6	381	25.692665719961	19
6	406	26.989553584662	20
6	406	26.989553584662	21
6	423	28.625579345524	22
6	423	28.625579345524	23
6	452	29.939043457526	24
6	452	29.939043457526	25
6	478	31.878477382078	26
6	478	31.878477382078	27
6	503	33.901312045988	28
6	503	33.901312045988	29
6	524	35.458833304146	30
6	524	35.458833304146	31
6	550	37.393807592178	32
6	550	37.393807592178	33
6	614	43.310788543428	34
6	614	43.310788543428	35
6	663	45.993209667294	36
6	663	45.993209667294	37
6	688	47.284757552804	38
6	688	47.284757552804	39
6	731	50.533392025418	40
6	731	50.533392025418	41
6	776	53.171638776117	42
6	776	53.171638776117	43
6	807	54.670615713715	44
6	807	54.670615713715	45
6	838	58.049993846023	46
6	838	58.049993846023	47
6	863	59.915624107848	48
6	863	59.915624107848	49
6	892	61.554661786161	50
6	892	61.554661786161	51
6	916	64.650745006387	52
6	916	64.650745006387	53
6	945	65.832067616964	54
6	945	65.832067616964	55
6	970	67.738132324357	56
6	970	67.738132324357	57
6	995	69.669898474281	58
6	995	69.669898474281	59
6	1100	77.646304101732	60
6	1100	77.646304101732	61
6	1125	79.010248909484	62
6	1125	79.010248909484	63
6	1161	81.68536931742	64
6	1161	81.68536931742	65
6	1228	88.81368611402	66
6	1228	88.81368611402	67
6	1253	90.074639426074	68
6	1253	90.074639426074	69
6	1274	91.846045122779	70
6	1274	91.846045122779	71
6	1290	93.457194820654	72
6	1290	93.457194820654	73
6	1324	94.55230890308	74
6	1324	94.55230890308	75
6	1345	95.658672717849	76
6	1345	95.658672717849	77
6	1368	97.095663491483	78
6	1368	97.095663491483	79
6	1414	99.64942412746	80
6	1414	99.64942412746	81
6	1438	100.825810918552	82
6	1438	100.825810918552	83
6	1459	102.044133175322	84
6	1459	102.044133175322	85
6	1488	103.219585738243	86
6	1488	103.219585738243	87
6	1510	104.437488034421	88
6	1510	104.437488034421	89
6	1574	108.466797374107	90
6	1574	108.466797374107	91
6	1603	109.900795930075	92
6	1603	109.900795930075	93
6	1625	110.913097456019	94
6	1625	110.913097456019	95
6	1647	112.795154722179	96
6	1647	112.795154722179	97
6	1675	114.729475648694	98
6	1675	114.729475648694	99
6	1722	118.03460045621	100
6	1722	118.03460045621	101
6	1746	119.815089963034	102
6	1746	119.815089963034	103
6	1799	124.929966358756	104
6	1799	124.929966358756	105
6	1820	125.928778496557	106
6	1820	125.928778496557	107
6	1917	133.949513785988	108
6	1917	133.949513785988	109
6	1946	135.239039026185	110
6	1946	135.239039026185	111
6	1989	138.175836273267	112
6	1989	138.175836273267	113
6	2011	139.374403053495	114
6	2011	139.374403053495	115
6	2036	140.697140037039	116
6	2036	140.697140037039	117
6	2141	148.051909912508	118
6	2141	148.051909912508	119
6	2166	149.119362831249	120
6	2166	149.119362831249	121
6	2191	150.741595002041	122
6	2191	150.741595002041	123
6	2219	152.017625437095	124
6	2219	152.017625437095	125
6	2256	154.616395883471	126
6	2256	154.616395883471	127
6	2287	156.671150137433	128
6	2287	156.671150137433	129
6	2334	159.477725640422	130
6	2334	159.477725640422	131
6	2358	161.989471676107	132
6	2358	161.989471676107	133
6	2409	164.601497842416	134
6	2409	164.601497842416	135
6	2456	167.707677101799	136
6	2456	167.707677101799	137
6	2498	172.405796771956	138
6	2498	172.405796771956	139
6	2549	175.439188558356	140
6	2549	175.439188558356	141
6	2567	176.643281657409	142
6	2567	176.643281657409	143
6	2599	177.806338957844	144
6	2599	177.806338957844	145
6	2636	180.505795963445	146
6	2636	180.505795963445	147
6	2667	183.884436581924	148
6	2667	183.884436581924	149
6	2696	185.88103606794	150
6	2696	185.88103606794	151
6	2724	187.575807514719	152
6	2724	187.575807514719	153
6	2789	191.947225453408	154
6	2789	191.947225453408	155
6	2833	194.943754136671	156
6	2833	194.943754136671	157
6	2861	197.533060563259	158
6	2861	197.533060563259	159
6	2889	198.943183402806	160
6	2889	198.943183402806	161
6	2978	206.968871431473	162
6	2978	206.968871431473	163
6	3008	208.930195070484	164
6	3008	208.930195070484	165
6	3096	214.930475160512	166
6	3096	214.930475160512	167
6	3167	218.408381140758	168
6	3167	218.408381140758	169
6	3192	219.943212310884	170
6	3192	219.943212310884	171
6	3239	223.096601040647	172
6	3239	223.096601040647	173
6	3260	224.823274732035	174
6	3260	224.823274732035	175
6	3307	228.326150836568	176
6	3307	228.326150836568	177
6	3333	229.622848604765	178
6	3333	229.622848604765	179
6	3416	236.007774496593	180
6	3416	236.007774496593	181
6	3437	237.021374951348	182
6	3437	237.021374951348	183
6	3469	238.261888053987	184
6	3469	238.261888053987	185
7	40	2.136565108149	0
7	79	5.304683294297	1
7	118	9.165957121358	2
7	224	15.627819736459	3
7	301	21.115745827394	4
7	383	25.702665719961	5
7	458	29.967325471958	6
7	483	31.888477382078	7
7	526	35.468833304146	8
7	620	43.319104153973	9
7	622	43.320788543428	10
7	641	44.488969976137	11
7	684	47.275253794555	12
7	690	47.294757552804	13
7	712	48.823603209091	14
7	737	50.549235871151	15
7	755	52.049780696593	16
7	782	53.181638776117	17
7	841	58.059993846023	18
7	858	59.891924718037	19
7	888	61.530355605239	20
7	894	61.564661786161	21
7	922	64.729957898662	22
7	965	67.698724878058	23
7	997	69.679898474281	24
7	1044	73.646740727946	25
7	1077	76.299838059415	26
7	1120	78.978587141734	27
7	1127	79.020248909484	28
7	1164	81.688575413747	29
7	1202	85.139152947718	30
7	1230	88.82368611402	31
7	1252	90.072969242501	32
7	1255	90.084639426074	33
7	1298	93.467194820654	34
7	1348	95.668672717849	35
7	1351	95.677729730847	36
7	1371	97.098513283007	37
7	1374	97.105663491483	38
7	1465	102.076289339001	39
7	1490	103.229585738243	40
7	1513	104.437832858529	41
7	1548	106.92420481558	42
7	1599	109.891812258642	43
7	1628	110.920914949976	44
7	1669	114.706042003424	45
7	1702	116.350988827165	46
7	1725	118.042584772621	47
7	1748	119.825089963034	48
7	1795	124.915850362028	49
7	1894	131.956518210445	50
7	1920	133.959513785988	51
7	1923	133.963804520008	52
7	1945	135.226235844736	53
7	1984	138.15103698365	54
7	1991	138.185836273267	55
7	2041	140.707140037039	56
7	2103	144.90751979295	57
7	2146	148.061909912508	58
7	2169	149.125585689438	59
7	2171	149.129362831249	60
7	2194	150.746154297633	61
7	2196	150.751595002041	62
7	2212	151.975955067991	63
7	2221	152.027625437095	64
7	2243	153.524843692979	65
7	2261	154.626395883471	66
7	2268	154.640356349822	67
7	2304	157.74769032759	68
7	2329	159.454250566485	69
7	2405	164.597764128179	70
7	2458	167.717677101799	71
7	2642	180.515795963445	72
7	2719	187.554136186435	73
7	2791	191.957225453408	74
7	2813	192.949964185087	75
7	2865	197.543060563259	76
7	2869	197.564725280424	77
7	2892	198.949555425424	78
7	2988	206.983677579194	79
7	3102	214.936618787027	80
7	3104	214.940475160512	81
7	3126	216.036973449333	82
7	3166	218.393433222826	83
7	3184	219.915119496061	84
7	3285	226.752585406767	85
7	3336	229.624398726472	86
7	3338	229.632848604765	87
7	3419	236.013993898039	88
7	3421	236.017774496593	89
7	3468	238.249678481603	90

