version 2
run General-0-20230921-22:36:11-7122
attr configname General
attr datetime 20230921-22:36:11
attr experiment General
attr inifile omnetpp.ini
attr iterationvars ""
attr iterationvarsf ""
attr measurement ""
attr network Network3
attr processid 7122
attr repetition 0
attr replication #0
attr resultdir results
attr runnumber 0
attr seedset 0
param Network3.node[*].transmissionTime "uniform(1s, 2s)"
param Network3.node[*].delayTime "uniform(0.01s, 0.2s)"
param Network3.node[*].processingTime exponential(0.01s)
param Network3.node[0].lossProbability 0
param Network3.node[1].lossProbability 0.2
param Network3.node[2].lossProbability 0.2
param Network3.node[3].lossProbability "0.2 / 2"
param Network3.node[4].lossProbability "0.2 / 2"
param Network3.node[6].lossProbability "0.2 * 2"
param Network3.node[7].lossProbability "0.2 * 2"
param Network3.node[5].lossProbability "0.2 * 3"

vector 0 Network3.node[0] txVector ETV
vector 1 Network3.node[1] txVector ETV
vector 2 Network3.node[2] txVector ETV
vector 3 Network3.node[4] txVector ETV
vector 4 Network3.node[3] txVector ETV
vector 5 Network3.node[7] txVector ETV
vector 6 Network3.node[5] rxVector ETV
vector 7 Network3.node[6] txVector ETV
0	1	0.114274565438	0
0	1	0.114274565438	1
0	19	1.707119181827	2
0	19	1.707119181827	3
0	41	3.184784293482	4
0	41	3.184784293482	5
0	66	4.6583923335	6
0	66	4.6583923335	7
0	69	6.226826281827	8
0	69	6.226826281827	9
0	94	7.55096728595	10
0	94	7.55096728595	11
0	116	8.679893584298	12
0	116	8.679893584298	13
0	137	10.14620435711	14
0	137	10.14620435711	15
0	162	11.819863988161	16
0	162	11.819863988161	17
0	183	13.234126976533	18
0	183	13.234126976533	19
0	197	15.076469055684	20
0	197	15.076469055684	21
0	200	16.446277151424	22
0	200	16.446277151424	23
0	225	18.124093690728	24
0	225	18.124093690728	25
0	250	19.240295600685	26
0	250	19.240295600685	27
0	268	20.846688817561	28
0	268	20.846688817561	29
0	290	22.416653729117	30
0	290	22.416653729117	31
0	309	24.120542314675	32
0	309	24.120542314675	33
0	334	25.899593332855	34
0	334	25.899593332855	35
0	359	27.259571391929	36
0	359	27.259571391929	37
0	384	29.043215639962	38
0	384	29.043215639962	39
0	406	30.229408645377	40
0	406	30.229408645377	41
0	431	31.409012322853	42
0	431	31.409012322853	43
0	445	33.290597726897	44
0	445	33.290597726897	45
0	466	34.716049264258	46
0	466	34.716049264258	47
0	491	35.741711977709	48
0	491	35.741711977709	49
0	512	37.204862174185	50
0	512	37.204862174185	51
0	530	38.757054645641	52
0	530	38.757054645641	53
0	555	40.542207555918	54
0	555	40.542207555918	55
0	577	42.028367114326	56
0	577	42.028367114326	57
0	599	43.032415219888	58
0	599	43.032415219888	59
0	620	44.82128799388	60
0	620	44.82128799388	61
0	645	46.591868742675	62
0	645	46.591868742675	63
0	667	48.068345946566	64
0	667	48.068345946566	65
0	681	49.274940552263	66
0	681	49.274940552263	67
0	687	50.408405762937	68
0	687	50.408405762937	69
0	712	52.123584511763	70
0	712	52.123584511763	71
0	734	53.401180606176	72
0	734	53.401180606176	73
0	759	54.800205933236	74
0	759	54.800205933236	75
0	781	56.753927314494	76
0	781	56.753927314494	77
0	806	58.690673791643	78
0	806	58.690673791643	79
0	812	60.635975325087	80
0	812	60.635975325087	81
0	837	61.962676211798	82
0	837	61.962676211798	83
0	862	63.944315892018	84
0	862	63.944315892018	85
0	887	65.606820462577	86
0	887	65.606820462577	87
0	905	67.345503120756	88
0	905	67.345503120756	89
0	927	68.573766734524	90
0	927	68.573766734524	91
0	952	70.253882273173	92
0	952	70.253882273173	93
0	970	71.953457334617	94
0	970	71.953457334617	95
0	976	73.557575139988	96
0	976	73.557575139988	97
0	998	75.525369812574	98
0	998	75.525369812574	99
0	1023	77.031236196941	100
0	1023	77.031236196941	101
0	1048	78.54186509976	102
0	1048	78.54186509976	103
0	1069	79.549749202401	104
0	1069	79.549749202401	105
0	1072	81.240642929756	106
0	1072	81.240642929756	107
0	1097	82.817783176507	108
0	1097	82.817783176507	109
0	1119	84.466381486113	110
0	1119	84.466381486113	111
0	1144	86.34648834898	112
0	1144	86.34648834898	113
0	1169	87.521260356371	114
0	1169	87.521260356371	115
0	1194	89.432254347325	116
0	1194	89.432254347325	117
0	1219	90.902903296127	118
0	1219	90.902903296127	119
0	1241	92.831122004268	120
0	1241	92.831122004268	121
0	1266	94.27926483455	122
0	1266	94.27926483455	123
0	1288	95.801261104251	124
0	1288	95.801261104251	125
0	1313	97.181596291092	126
0	1313	97.181596291092	127
0	1331	98.654786341897	128
0	1331	98.654786341897	129
0	1356	99.713656626249	130
0	1356	99.713656626249	131
0	1374	100.824133736853	132
0	1374	100.824133736853	133
0	1399	102.458920062826	134
0	1399	102.458920062826	135
0	1413	104.179447582764	136
0	1413	104.179447582764	137
0	1431	105.323733681421	138
0	1431	105.323733681421	139
0	1449	107.036660535335	140
0	1449	107.036660535335	141
0	1470	108.907763064913	142
0	1470	108.907763064913	143
0	1489	110.589503010576	144
0	1489	110.589503010576	145
0	1514	111.759602651074	146
0	1514	111.759602651074	147
0	1536	112.760986005961	148
0	1536	112.760986005961	149
0	1561	114.727133454363	150
0	1561	114.727133454363	151
0	1586	116.702123265322	152
0	1586	116.702123265322	153
0	1608	117.819648909224	154
0	1608	117.819648909224	155
0	1630	119.629013879997	156
0	1630	119.629013879997	157
0	1652	120.841448240056	158
0	1652	120.841448240056	159
0	1674	122.056846446199	160
0	1674	122.056846446199	161
0	1699	123.106195392394	162
0	1699	123.106195392394	163
0	1713	124.463402812676	164
0	1713	124.463402812676	165
0	1738	126.308256395934	166
0	1738	126.308256395934	167
0	1756	127.800148628028	168
0	1756	127.800148628028	169
0	1781	129.715119392685	170
0	1781	129.715119392685	171
0	1806	130.760353880776	172
0	1806	130.760353880776	173
0	1828	131.819737065192	174
0	1828	131.819737065192	175
0	1853	133.683207711279	176
0	1853	133.683207711279	177
0	1867	134.927240142673	178
0	1867	134.927240142673	179
0	1892	136.511832716483	180
0	1892	136.511832716483	181
0	1917	138.230459107626	182
0	1917	138.230459107626	183
0	1942	139.834536653785	184
0	1942	139.834536653785	185
0	1967	141.011036035679	186
0	1967	141.011036035679	187
0	1985	142.601893584318	188
0	1985	142.601893584318	189
0	2007	144.451212745467	190
0	2007	144.451212745467	191
0	2017	145.996992086367	192
0	2017	145.996992086367	193
0	2042	147.121280980137	194
0	2042	147.121280980137	195
0	2064	148.74178087416	196
0	2064	148.74178087416	197
0	2086	150.685631726709	198
0	2086	150.685631726709	199
0	2108	152.413175340815	200
0	2108	152.413175340815	201
0	2133	154.236893015754	202
0	2133	154.236893015754	203
0	2147	156.141719720167	204
0	2147	156.141719720167	205
0	2172	158.03763091036	206
0	2172	158.03763091036	207
0	2194	159.080537104587	208
0	2194	159.080537104587	209
0	2219	161.047592021831	210
0	2219	161.047592021831	211
0	2241	162.532622558837	212
0	2241	162.532622558837	213
0	2263	164.517395028918	214
0	2263	164.517395028918	215
0	2288	165.929828578214	216
0	2288	165.929828578214	217
0	2313	167.032274860031	218
0	2313	167.032274860031	219
0	2332	169.020033249007	220
0	2332	169.020033249007	221
0	2357	170.61061862654	222
0	2357	170.61061862654	223
0	2382	172.347603868534	224
0	2382	172.347603868534	225
0	2400	174.2590547398	226
0	2400	174.2590547398	227
0	2425	175.567582694421	228
0	2425	175.567582694421	229
0	2428	176.576957877333	230
0	2428	176.576957877333	231
0	2450	178.20411858715	232
0	2450	178.20411858715	233
0	2472	179.448688195859	234
0	2472	179.448688195859	235
0	2497	181.112885302006	236
0	2497	181.112885302006	237
0	2522	182.343190889413	238
0	2522	182.343190889413	239
0	2544	184.10138460093	240
0	2544	184.10138460093	241
0	2569	185.871512726953	242
0	2569	185.871512726953	243
0	2583	186.997323882838	244
0	2583	186.997323882838	245
0	2608	188.335605274027	246
0	2608	188.335605274027	247
0	2633	190.013113634733	248
0	2633	190.013113634733	249
0	2647	191.772986875453	250
0	2647	191.772986875453	251
0	2669	193.642834947283	252
0	2669	193.642834947283	253
0	2691	194.864164703131	254
0	2691	194.864164703131	255
0	2716	196.510655295641	256
0	2716	196.510655295641	257
0	2741	198.277246350028	258
0	2741	198.277246350028	259
0	2763	200.004097376788	260
0	2763	200.004097376788	261
0	2785	201.4342429925	262
0	2785	201.4342429925	263
0	2810	202.720696533635	264
0	2810	202.720696533635	265
0	2832	204.63284748334	266
0	2832	204.63284748334	267
0	2850	205.842707954184	268
0	2850	205.842707954184	269
0	2872	207.097771735233	270
0	2872	207.097771735233	271
0	2894	208.558821948548	272
0	2894	208.558821948548	273
0	2919	210.267872756883	274
0	2919	210.267872756883	275
0	2941	211.554598603701	276
0	2941	211.554598603701	277
0	2966	212.924539296027	278
0	2966	212.924539296027	279
0	2987	214.881083398197	280
0	2987	214.881083398197	281
0	3009	216.600552515431	282
0	3009	216.600552515431	283
0	3031	217.715319873371	284
0	3031	217.715319873371	285
0	3056	219.00246144233	286
0	3056	219.00246144233	287
0	3081	220.430839954482	288
0	3081	220.430839954482	289
0	3103	221.945464838368	290
0	3103	221.945464838368	291
0	3128	223.287448035625	292
0	3128	223.287448035625	293
0	3149	224.834316217878	294
0	3149	224.834316217878	295
0	3171	226.381279474196	296
0	3171	226.381279474196	297
0	3196	227.410360325665	298
0	3196	227.410360325665	299
0	3221	229.325767969086	300
0	3221	229.325767969086	301
0	3239	231.05953062915	302
0	3239	231.05953062915	303
0	3260	232.756357963735	304
0	3260	232.756357963735	305
0	3285	234.063890001343	306
0	3285	234.063890001343	307
0	3307	236.009526066088	308
0	3307	236.009526066088	309
0	3332	237.031194998954	310
0	3332	237.031194998954	311
0	3354	238.431664711401	312
0	3354	238.431664711401	313
0	3372	239.653154886399	314
0	3372	239.653154886399	315
1	4	0.142870607559	0
1	4	0.142870607559	1
1	4	0.142870607559	2
1	25	1.73384129383	3
1	25	1.73384129383	4
1	25	1.73384129383	5
1	45	3.210924314231	6
1	45	3.210924314231	7
1	45	3.210924314231	8
1	72	6.238447646721	9
1	72	6.238447646721	10
1	72	6.238447646721	11
1	97	7.564756905593	12
1	97	7.564756905593	13
1	97	7.564756905593	14
1	120	8.692696354383	15
1	120	8.692696354383	16
1	120	8.692696354383	17
1	147	10.221393776903	18
1	147	10.221393776903	19
1	147	10.221393776903	20
1	165	11.830526962176	21
1	165	11.830526962176	22
1	165	11.830526962176	23
1	203	16.459424368033	24
1	203	16.459424368033	25
1	203	16.459424368033	26
1	229	18.148661876314	27
1	229	18.148661876314	28
1	229	18.148661876314	29
1	253	19.250489398498	30
1	253	19.250489398498	31
1	253	19.250489398498	32
1	272	20.865626108344	33
1	272	20.865626108344	34
1	272	20.865626108344	35
1	293	22.427709855553	36
1	293	22.427709855553	37
1	293	22.427709855553	38
1	315	24.15056217963	39
1	315	24.15056217963	40
1	315	24.15056217963	41
1	340	25.922686316495	42
1	340	25.922686316495	43
1	340	25.922686316495	44
1	369	27.360087251455	45
1	369	27.360087251455	46
1	369	27.360087251455	47
1	390	29.082106395881	48
1	390	29.082106395881	49
1	390	29.082106395881	50
1	409	30.23965852891	51
1	409	30.23965852891	52
1	409	30.23965852891	53
1	437	31.442490760467	54
1	437	31.442490760467	55
1	437	31.442490760467	56
1	448	33.322255363706	57
1	448	33.322255363706	58
1	448	33.322255363706	59
1	469	34.728374514442	60
1	469	34.728374514442	61
1	469	34.728374514442	62
1	494	35.770064611738	63
1	494	35.770064611738	64
1	494	35.770064611738	65
1	515	37.223644324972	66
1	515	37.223644324972	67
1	515	37.223644324972	68
1	533	38.770363744453	69
1	533	38.770363744453	70
1	533	38.770363744453	71
1	559	40.564536360548	72
1	559	40.564536360548	73
1	559	40.564536360548	74
1	580	42.041507093307	75
1	580	42.041507093307	76
1	580	42.041507093307	77
1	603	43.047714835681	78
1	603	43.047714835681	79
1	603	43.047714835681	80
1	624	44.832877325677	81
1	624	44.832877325677	82
1	624	44.832877325677	83
1	649	46.608561771395	84
1	649	46.608561771395	85
1	649	46.608561771395	86
1	671	48.097137130908	87
1	671	48.097137130908	88
1	671	48.097137130908	89
1	690	50.425155272674	90
1	690	50.425155272674	91
1	690	50.425155272674	92
1	715	52.134964044082	93
1	715	52.134964044082	94
1	715	52.134964044082	95
1	745	53.452735142646	96
1	745	53.452735142646	97
1	745	53.452735142646	98
1	763	54.818366118876	99
1	763	54.818366118876	100
1	763	54.818366118876	101
1	784	56.769858130467	102
1	784	56.769858130467	103
1	784	56.769858130467	104
1	822	60.669176199441	105
1	822	60.669176199441	106
1	822	60.669176199441	107
1	840	61.97548197106	108
1	840	61.97548197106	109
1	840	61.97548197106	110
1	865	63.957140359138	111
1	865	63.957140359138	112
1	865	63.957140359138	113
1	890	65.622782181491	114
1	890	65.622782181491	115
1	890	65.622782181491	116
1	915	67.414951338836	117
1	915	67.414951338836	118
1	915	67.414951338836	119
1	930	68.599640306821	120
1	930	68.599640306821	121
1	930	68.599640306821	122
1	962	70.292042814538	123
1	962	70.292042814538	124
1	962	70.292042814538	125
1	990	73.658161872107	126
1	990	73.658161872107	127
1	990	73.658161872107	128
1	1001	75.539085970122	129
1	1001	75.539085970122	130
1	1001	75.539085970122	131
1	1026	77.046127281047	132
1	1026	77.046127281047	133
1	1026	77.046127281047	134
1	1051	78.556528070024	135
1	1051	78.556528070024	136
1	1051	78.556528070024	137
1	1076	81.262526221359	138
1	1076	81.262526221359	139
1	1076	81.262526221359	140
1	1100	82.828078494619	141
1	1100	82.828078494619	142
1	1100	82.828078494619	143
1	1122	84.480360970059	144
1	1122	84.480360970059	145
1	1122	84.480360970059	146
1	1147	86.361417136664	147
1	1147	86.361417136664	148
1	1147	86.361417136664	149
1	1172	87.552338159955	150
1	1172	87.552338159955	151
1	1172	87.552338159955	152
1	1197	89.447006441713	153
1	1197	89.447006441713	154
1	1197	89.447006441713	155
1	1223	90.921870154493	156
1	1223	90.921870154493	157
1	1223	90.921870154493	158
1	1247	92.868869550484	159
1	1247	92.868869550484	160
1	1247	92.868869550484	161
1	1269	94.30409656863	162
1	1269	94.30409656863	163
1	1269	94.30409656863	164
1	1291	95.812860546385	165
1	1291	95.812860546385	166
1	1291	95.812860546385	167
1	1323	97.25294834206	168
1	1323	97.25294834206	169
1	1323	97.25294834206	170
1	1334	98.666108457895	171
1	1334	98.666108457895	172
1	1334	98.666108457895	173
1	1359	99.728849163498	174
1	1359	99.728849163498	175
1	1359	99.728849163498	176
1	1384	100.896624790719	177
1	1384	100.896624790719	178
1	1384	100.896624790719	179
1	1403	102.478955306705	180
1	1403	102.478955306705	181
1	1403	102.478955306705	182
1	1435	105.339301389535	183
1	1435	105.339301389535	184
1	1435	105.339301389535	185
1	1453	107.057674496118	186
1	1453	107.057674496118	187
1	1453	107.057674496118	188
1	1473	108.921011232959	189
1	1473	108.921011232959	190
1	1473	108.921011232959	191
1	1500	110.654225641045	192
1	1500	110.654225641045	193
1	1500	110.654225641045	194
1	1524	111.853730178692	195
1	1524	111.853730178692	196
1	1524	111.853730178692	197
1	1546	112.807801207112	198
1	1546	112.807801207112	199
1	1546	112.807801207112	200
1	1565	114.740711981086	201
1	1565	114.740711981086	202
1	1565	114.740711981086	203
1	1592	116.749372009063	204
1	1592	116.749372009063	205
1	1592	116.749372009063	206
1	1611	117.841994447922	207
1	1611	117.841994447922	208
1	1611	117.841994447922	209
1	1633	119.64103544936	210
1	1633	119.64103544936	211
1	1633	119.64103544936	212
1	1656	120.870991327773	213
1	1656	120.870991327773	214
1	1656	120.870991327773	215
1	1677	122.07031211629	216
1	1677	122.07031211629	217
1	1677	122.07031211629	218
1	1705	123.152281942563	219
1	1705	123.152281942563	220
1	1705	123.152281942563	221
1	1716	124.480538924209	222
1	1716	124.480538924209	223
1	1716	124.480538924209	224
1	1745	126.341178892192	225
1	1745	126.341178892192	226
1	1745	126.341178892192	227
1	1759	127.823306770346	228
1	1759	127.823306770346	229
1	1759	127.823306770346	230
1	1784	129.729054216655	231
1	1784	129.729054216655	232
1	1784	129.729054216655	233
1	1809	130.791230783407	234
1	1809	130.791230783407	235
1	1809	130.791230783407	236
1	1832	131.838095840867	237
1	1832	131.838095840867	238
1	1832	131.838095840867	239
1	1863	133.741098906679	240
1	1863	133.741098906679	241
1	1863	133.741098906679	242
1	1873	134.951372840826	243
1	1873	134.951372840826	244
1	1873	134.951372840826	245
1	1895	136.52592710961	246
1	1895	136.52592710961	247
1	1895	136.52592710961	248
1	1921	138.247303297042	249
1	1921	138.247303297042	250
1	1921	138.247303297042	251
1	1948	139.87253188147	252
1	1948	139.87253188147	253
1	1948	139.87253188147	254
1	1971	141.03307724728	255
1	1971	141.03307724728	256
1	1971	141.03307724728	257
1	1989	142.623785265063	258
1	1989	142.623785265063	259
1	1989	142.623785265063	260
1	2020	146.009518990136	261
1	2020	146.009518990136	262
1	2020	146.009518990136	263
1	2045	147.141487004984	264
1	2045	147.141487004984	265
1	2045	147.141487004984	266
1	2071	148.785283525217	267
1	2071	148.785283525217	268
1	2071	148.785283525217	269
1	2089	150.695877448167	270
1	2089	150.695877448167	271
1	2089	150.695877448167	272
1	2111	152.425825062172	273
1	2111	152.425825062172	274
1	2111	152.425825062172	275
1	2137	154.257426371889	276
1	2137	154.257426371889	277
1	2137	154.257426371889	278
1	2150	156.153074798443	279
1	2150	156.153074798443	280
1	2150	156.153074798443	281
1	2175	158.059699200573	282
1	2175	158.059699200573	283
1	2175	158.059699200573	284
1	2197	159.100083731269	285
1	2197	159.100083731269	286
1	2197	159.100083731269	287
1	2226	161.080178942073	288
1	2226	161.080178942073	289
1	2226	161.080178942073	290
1	2245	162.553666161234	291
1	2245	162.553666161234	292
1	2245	162.553666161234	293
1	2266	164.529190115878	294
1	2266	164.529190115878	295
1	2266	164.529190115878	296
1	2298	165.973012666434	297
1	2298	165.973012666434	298
1	2298	165.973012666434	299
1	2316	167.064110716195	300
1	2316	167.064110716195	301
1	2316	167.064110716195	302
1	2335	169.035751956657	303
1	2335	169.035751956657	304
1	2335	169.035751956657	305
1	2372	170.692795776313	306
1	2372	170.692795776313	307
1	2372	170.692795776313	308
1	2385	172.360838165288	309
1	2385	172.360838165288	310
1	2385	172.360838165288	311
1	2404	174.297559761898	312
1	2404	174.297559761898	313
1	2404	174.297559761898	314
1	2431	176.593938531484	315
1	2431	176.593938531484	316
1	2431	176.593938531484	317
1	2453	178.220247396906	318
1	2453	178.220247396906	319
1	2453	178.220247396906	320
1	2476	179.463824628218	321
1	2476	179.463824628218	322
1	2476	179.463824628218	323
1	2500	181.123477183984	324
1	2500	181.123477183984	325
1	2500	181.123477183984	326
1	2525	182.359350440031	327
1	2525	182.359350440031	328
1	2525	182.359350440031	329
1	2554	184.163969949156	330
1	2554	184.163969949156	331
1	2554	184.163969949156	332
1	2572	185.883807002168	333
1	2572	185.883807002168	334
1	2572	185.883807002168	335
1	2586	187.011888518978	336
1	2586	187.011888518978	337
1	2586	187.011888518978	338
1	2614	188.373389631943	339
1	2614	188.373389631943	340
1	2614	188.373389631943	341
1	2637	190.038850403241	342
1	2637	190.038850403241	343
1	2637	190.038850403241	344
1	2650	191.785287287366	345
1	2650	191.785287287366	346
1	2650	191.785287287366	347
1	2672	193.655478724655	348
1	2672	193.655478724655	349
1	2672	193.655478724655	350
1	2701	194.899005837393	351
1	2701	194.899005837393	352
1	2701	194.899005837393	353
1	2726	196.57539479212	354
1	2726	196.57539479212	355
1	2726	196.57539479212	356
1	2744	198.293355565425	357
1	2744	198.293355565425	358
1	2744	198.293355565425	359
1	2766	200.019740578279	360
1	2766	200.019740578279	361
1	2766	200.019740578279	362
1	2791	201.467435264101	363
1	2791	201.467435264101	364
1	2791	201.467435264101	365
1	2813	202.731956128488	366
1	2813	202.731956128488	367
1	2813	202.731956128488	368
1	2835	204.644266641277	369
1	2835	204.644266641277	370
1	2835	204.644266641277	371
1	2853	205.866592386894	372
1	2853	205.866592386894	373
1	2853	205.866592386894	374
1	2876	207.135130140357	375
1	2876	207.135130140357	376
1	2876	207.135130140357	377
1	2897	208.578374250538	378
1	2897	208.578374250538	379
1	2897	208.578374250538	380
1	2923	210.280062358567	381
1	2923	210.280062358567	382
1	2923	210.280062358567	383
1	2945	211.573384695401	384
1	2945	211.573384695401	385
1	2945	211.573384695401	386
1	2969	212.945540494964	387
1	2969	212.945540494964	388
1	2969	212.945540494964	389
1	2990	214.895969775209	390
1	2990	214.895969775209	391
1	2990	214.895969775209	392
1	3012	216.610889052344	393
1	3012	216.610889052344	394
1	3012	216.610889052344	395
1	3035	217.731239086905	396
1	3035	217.731239086905	397
1	3035	217.731239086905	398
1	3062	219.038121614752	399
1	3062	219.038121614752	400
1	3062	219.038121614752	401
1	3084	220.451168114146	402
1	3084	220.451168114146	403
1	3084	220.451168114146	404
1	3109	221.974113690377	405
1	3109	221.974113690377	406
1	3109	221.974113690377	407
1	3132	223.301604716673	408
1	3132	223.301604716673	409
1	3132	223.301604716673	410
1	3159	224.89652671716	411
1	3159	224.89652671716	412
1	3159	224.89652671716	413
1	3174	226.394011977602	414
1	3174	226.394011977602	415
1	3174	226.394011977602	416
1	3199	227.421945404213	417
1	3199	227.421945404213	418
1	3199	227.421945404213	419
1	3224	229.337354912106	420
1	3224	229.337354912106	421
1	3224	229.337354912106	422
1	3249	231.11698426596	423
1	3249	231.11698426596	424
1	3249	231.11698426596	425
1	3266	232.787207914714	426
1	3266	232.787207914714	427
1	3266	232.787207914714	428
1	3289	234.080084395521	429
1	3289	234.080084395521	430
1	3289	234.080084395521	431
1	3310	236.02892095069	432
1	3310	236.02892095069	433
1	3310	236.02892095069	434
1	3335	237.053080800068	435
1	3335	237.053080800068	436
1	3335	237.053080800068	437
1	3357	238.442117321121	438
1	3357	238.442117321121	439
1	3357	238.442117321121	440
1	3376	239.679399151872	441
1	3376	239.679399151872	442
1	3376	239.679399151872	443
2	5	0.143790018797	0
2	5	0.143790018797	1
2	22	1.723658007499	2
2	22	1.723658007499	3
2	44	3.202133937694	4
2	44	3.202133937694	5
2	73	6.239340701148	6
2	73	6.239340701148	7
2	98	7.565488306552	8
2	98	7.565488306552	9
2	119	8.691624858859	10
2	119	8.691624858859	11
2	140	10.193694671706	12
2	140	10.193694671706	13
2	169	11.841655883432	14
2	169	11.841655883432	15
2	186	13.256726314634	16
2	186	13.256726314634	17
2	207	16.469564730162	18
2	207	16.469564730162	19
2	228	18.139400915694	20
2	228	18.139400915694	21
2	254	19.253884872844	22
2	254	19.253884872844	23
2	271	20.865229614917	24
2	271	20.865229614917	25
2	312	24.135842343456	26
2	312	24.135842343456	27
2	337	25.911476282607	28
2	337	25.911476282607	29
2	362	27.27928621351	30
2	362	27.27928621351	31
2	387	29.066669114294	32
2	387	29.066669114294	33
2	410	30.240104822088	34
2	410	30.240104822088	35
2	434	31.429390823608	36
2	434	31.429390823608	37
2	463	33.377790612607	38
2	463	33.377790612607	39
2	481	34.755124859138	40
2	481	34.755124859138	41
2	506	35.805676985691	42
2	506	35.805676985691	43
2	527	37.273625105964	44
2	527	37.273625105964	45
2	534	38.775883451091	46
2	534	38.775883451091	47
2	558	40.559101901296	48
2	558	40.559101901296	49
2	581	42.043651786609	50
2	581	42.043651786609	51
2	602	43.046866713282	52
2	602	43.046866713282	53
2	623	44.832116616609	54
2	623	44.832116616609	55
2	648	46.608003133571	56
2	648	46.608003133571	57
2	670	48.089782852772	58
2	670	48.089782852772	59
2	684	49.291099745101	60
2	684	49.291099745101	61
2	702	50.466946297975	62
2	702	50.466946297975	63
2	716	52.138571435092	64
2	716	52.138571435092	65
2	737	53.416737195308	66
2	737	53.416737195308	67
2	762	54.811231452166	68
2	762	54.811231452166	69
2	785	56.776935688769	70
2	785	56.776935688769	71
2	809	58.701639204433	72
2	809	58.701639204433	73
2	815	60.648682568994	74
2	815	60.648682568994	75
2	841	61.977365425071	76
2	841	61.977365425071	77
2	866	63.965277817628	78
2	866	63.965277817628	79
2	894	65.644511907405	80
2	894	65.644511907405	81
2	908	67.385652803478	82
2	908	67.385652803478	83
2	938	68.6258682193	84
2	938	68.6258682193	85
2	955	70.2652962043	86
2	955	70.2652962043	87
2	973	71.995710495454	88
2	973	71.995710495454	89
2	979	73.606484240892	90
2	979	73.606484240892	91
2	1002	75.54003845601	92
2	1002	75.54003845601	93
2	1027	77.048788315119	94
2	1027	77.048788315119	95
2	1066	78.602138315145	96
2	1066	78.602138315145	97
2	1075	81.261789039786	98
2	1075	81.261789039786	99
2	1106	82.852982063445	100
2	1106	82.852982063445	101
2	1141	84.533782978381	102
2	1141	84.533782978381	103
2	1152	86.386883664881	104
2	1152	86.386883664881	105
2	1191	87.668160251986	106
2	1191	87.668160251986	107
2	1209	89.471162011316	108
2	1209	89.471162011316	109
2	1222	90.91855584894	110
2	1222	90.91855584894	111
2	1244	92.852270672809	112
2	1244	92.852270672809	113
2	1292	95.822810849587	114
2	1292	95.822810849587	115
2	1316	97.197703832841	116
2	1316	97.197703832841	117
2	1339	98.68421834746	118
2	1339	98.68421834746	119
2	1360	99.728854845698	120
2	1360	99.728854845698	121
2	1377	100.856141905597	122
2	1377	100.856141905597	123
2	1402	102.472592744501	124
2	1402	102.472592744501	125
2	1416	104.190126141544	126
2	1416	104.190126141544	127
2	1434	105.337324638249	128
2	1434	105.337324638249	129
2	1452	107.048801357282	130
2	1452	107.048801357282	131
2	1492	110.620864949839	132
2	1492	110.620864949839	133
2	1517	111.808021814109	134
2	1517	111.808021814109	135
2	1539	112.782552998858	136
2	1539	112.782552998858	137
2	1564	114.737956080018	138
2	1564	114.737956080018	139
2	1589	116.739088613861	140
2	1589	116.739088613861	141
2	1615	117.860512880613	142
2	1615	117.860512880613	143
2	1634	119.644172697222	144
2	1634	119.644172697222	145
2	1655	120.867688344494	146
2	1655	120.867688344494	147
2	1678	122.079400952914	148
2	1678	122.079400952914	149
2	1702	123.136776304171	150
2	1702	123.136776304171	151
2	1732	124.516734307342	152
2	1732	124.516734307342	153
2	1741	126.320308424117	154
2	1741	126.320308424117	155
2	1768	127.84950248886	156
2	1768	127.84950248886	157
2	1785	129.731989349044	158
2	1785	129.731989349044	159
2	1831	131.834324418605	160
2	1831	131.834324418605	161
2	1856	133.708040613262	162
2	1856	133.708040613262	163
2	1870	134.940136499652	164
2	1870	134.940136499652	165
2	1896	136.534843842862	166
2	1896	136.534843842862	167
2	1920	138.241715211119	168
2	1920	138.241715211119	169
2	1945	139.851595173736	170
2	1945	139.851595173736	171
2	1970	141.025513518427	172
2	1970	141.025513518427	173
2	1988	142.614512580224	174
2	1988	142.614512580224	175
2	2010	144.482375583947	176
2	2010	144.482375583947	177
2	2021	146.014753318143	178
2	2021	146.014753318143	179
2	2049	147.160950543408	180
2	2049	147.160950543408	181
2	2067	148.764488735354	182
2	2067	148.764488735354	183
2	2090	150.701254950959	184
2	2090	150.701254950959	185
2	2112	152.426895100899	186
2	2112	152.426895100899	187
2	2136	154.257134763544	188
2	2136	154.257134763544	189
2	2169	156.202242405791	190
2	2169	156.202242405791	191
2	2180	158.072082118777	192
2	2180	158.072082118777	193
2	2205	159.125378778417	194
2	2205	159.125378778417	195
2	2222	161.059932592294	196
2	2222	161.059932592294	197
2	2244	162.545436616181	198
2	2244	162.545436616181	199
2	2271	164.549816775489	200
2	2271	164.549816775489	201
2	2291	165.941647269635	202
2	2291	165.941647269635	203
2	2339	169.046062304382	204
2	2339	169.046062304382	205
2	2360	170.633357782716	206
2	2360	170.633357782716	207
2	2386	172.362216663163	208
2	2386	172.362216663163	209
2	2403	174.290970996291	210
2	2403	174.290970996291	211
2	2447	176.645695012617	212
2	2447	176.645695012617	213
2	2454	178.228282270421	214
2	2454	178.228282270421	215
2	2475	179.45958519596	216
2	2475	179.45958519596	217
2	2508	181.152535995647	218
2	2508	181.152535995647	219
2	2526	182.361714891967	220
2	2526	182.361714891967	221
2	2547	184.114407970895	222
2	2547	184.114407970895	223
2	2580	185.914825442399	224
2	2580	185.914825442399	225
2	2590	187.027457325396	226
2	2590	187.027457325396	227
2	2611	188.355311168025	228
2	2611	188.355311168025	229
2	2636	190.031106219504	230
2	2636	190.031106219504	231
2	2651	191.788518165346	232
2	2651	191.788518165346	233
2	2673	193.660298668404	234
2	2673	193.660298668404	235
2	2694	194.878849752659	236
2	2694	194.878849752659	237
2	2719	196.537433723528	238
2	2719	196.537433723528	239
2	2748	198.303452136534	240
2	2748	198.303452136534	241
2	2767	200.021673063084	242
2	2767	200.021673063084	243
2	2788	201.454521745498	244
2	2788	201.454521745498	245
2	2826	202.777948399683	246
2	2826	202.777948399683	247
2	2847	204.679639196655	248
2	2847	204.679639196655	249
2	2869	205.914968636179	250
2	2869	205.914968636179	251
2	2875	207.129379537337	252
2	2875	207.129379537337	253
2	2916	208.623909387465	254
2	2916	208.623909387465	255
2	2922	210.277962195644	256
2	2922	210.277962195644	257
2	2944	211.566309825731	258
2	2944	211.566309825731	259
2	2974	212.967837487742	260
2	2974	212.967837487742	261
2	3016	216.626454610683	262
2	3016	216.626454610683	263
2	3034	217.726641433212	264
2	3034	217.726641433212	265
2	3059	219.013571816051	266
2	3059	219.013571816051	267
2	3100	220.492143256474	268
2	3100	220.492143256474	269
2	3106	221.961559725585	270
2	3106	221.961559725585	271
2	3131	223.298158666123	272
2	3131	223.298158666123	273
2	3152	224.847297875492	274
2	3152	224.847297875492	275
2	3187	226.425559660569	276
2	3187	226.425559660569	277
2	3212	227.457944873315	278
2	3212	227.457944873315	279
2	3225	229.341817138653	280
2	3225	229.341817138653	281
2	3242	231.073786406472	282
2	3242	231.073786406472	283
2	3263	232.766795007927	284
2	3263	232.766795007927	285
2	3288	234.075058121508	286
2	3288	234.075058121508	287
2	3315	236.048564885681	288
2	3315	236.048564885681	289
2	3344	237.084110594207	290
2	3344	237.084110594207	291
2	3366	238.473705713365	292
2	3366	238.473705713365	293
2	3375	239.677742064769	294
2	3375	239.677742064769	295
3	11	0.158381092426	0
3	11	0.158381092426	1
3	11	0.158381092426	2
3	33	1.759640548357	3
3	33	1.759640548357	4
3	33	1.759640548357	5
3	48	3.213392681788	6
3	48	3.213392681788	7
3	48	3.213392681788	8
3	84	6.277226796934	9
3	84	6.277226796934	10
3	84	6.277226796934	11
3	102	7.575148737157	12
3	102	7.575148737157	13
3	102	7.575148737157	14
3	126	8.712856541874	15
3	126	8.712856541874	16
3	126	8.712856541874	17
3	143	10.210820507639	18
3	143	10.210820507639	19
3	143	10.210820507639	20
3	176	11.860559367401	21
3	176	11.860559367401	22
3	176	11.860559367401	23
3	189	13.269801491872	24
3	189	13.269801491872	25
3	189	13.269801491872	26
3	208	16.475103409568	27
3	208	16.475103409568	28
3	208	16.475103409568	29
3	235	18.170695909655	30
3	235	18.170695909655	31
3	235	18.170695909655	32
3	260	19.263886045824	33
3	260	19.263886045824	34
3	260	19.263886045824	35
3	282	20.90995496971	36
3	282	20.90995496971	37
3	282	20.90995496971	38
3	297	22.450235930802	39
3	297	22.450235930802	40
3	297	22.450235930802	41
3	316	24.151071043757	42
3	316	24.151071043757	43
3	316	24.151071043757	44
3	341	25.928200887775	45
3	341	25.928200887775	46
3	341	25.928200887775	47
3	365	27.301295922575	48
3	365	27.301295922575	49
3	365	27.301295922575	50
3	399	29.111813901099	51
3	399	29.111813901099	52
3	399	29.111813901099	53
3	416	30.256170836229	54
3	416	30.256170836229	55
3	416	30.256170836229	56
3	441	31.457172256976	57
3	441	31.457172256976	58
3	441	31.457172256976	59
3	452	33.338345809833	60
3	452	33.338345809833	61
3	452	33.338345809833	62
3	473	34.743061279202	63
3	473	34.743061279202	64
3	473	34.743061279202	65
3	499	35.781867354734	66
3	499	35.781867354734	67
3	499	35.781867354734	68
3	520	37.237099520809	69
3	520	37.237099520809	70
3	520	37.237099520809	71
3	545	38.801373567883	72
3	545	38.801373567883	73
3	545	38.801373567883	74
3	570	40.588002918277	75
3	570	40.588002918277	76
3	570	40.588002918277	77
3	592	42.068773427104	78
3	592	42.068773427104	79
3	592	42.068773427104	80
3	606	43.0577125082	81
3	606	43.0577125082	82
3	606	43.0577125082	83
3	634	44.859506983484	84
3	634	44.859506983484	85
3	634	44.859506983484	86
3	656	46.629500547448	87
3	656	46.629500547448	88
3	656	46.629500547448	89
3	674	48.104463917304	90
3	674	48.104463917304	91
3	674	48.104463917304	92
3	698	50.456586269678	93
3	698	50.456586269678	94
3	698	50.456586269678	95
3	721	52.146706031248	96
3	721	52.146706031248	97
3	721	52.146706031248	98
3	740	53.438764333146	99
3	740	53.438764333146	100
3	740	53.438764333146	101
3	769	54.829805803192	102
3	769	54.829805803192	103
3	769	54.829805803192	104
3	789	56.780196849019	105
3	789	56.780196849019	106
3	789	56.780196849019	107
3	818	60.659018908203	108
3	818	60.659018908203	109
3	818	60.659018908203	110
3	848	61.997547600859	111
3	848	61.997547600859	112
3	848	61.997547600859	113
3	876	63.986377744845	114
3	876	63.986377744845	115
3	876	63.986377744845	116
3	898	65.675112339454	117
3	898	65.675112339454	118
3	898	65.675112339454	119
3	911	67.400086147438	120
3	911	67.400086147438	121
3	911	67.400086147438	122
3	934	68.613153519636	123
3	934	68.613153519636	124
3	934	68.613153519636	125
3	958	70.281307750764	126
3	958	70.281307750764	127
3	958	70.281307750764	128
3	982	73.625454771033	129
3	982	73.625454771033	130
3	982	73.625454771033	131
3	1006	75.549354776317	132
3	1006	75.549354776317	133
3	1006	75.549354776317	134
3	1037	77.068524261853	135
3	1037	77.068524261853	136
3	1037	77.068524261853	137
3	1062	78.592052834959	138
3	1062	78.592052834959	139
3	1062	78.592052834959	140
3	1082	81.27671345355	141
3	1082	81.27671345355	142
3	1082	81.27671345355	143
3	1104	82.843913096342	144
3	1104	82.843913096342	145
3	1104	82.843913096342	146
3	1126	84.498227801214	147
3	1126	84.498227801214	148
3	1126	84.498227801214	149
3	1156	86.395099497194	150
3	1156	86.395099497194	151
3	1156	86.395099497194	152
3	1187	87.596201150799	153
3	1187	87.596201150799	154
3	1187	87.596201150799	155
3	1201	89.458926020733	156
3	1201	89.458926020733	157
3	1201	89.458926020733	158
3	1226	90.929988081655	159
3	1226	90.929988081655	160
3	1226	90.929988081655	161
3	1252	92.899662157589	162
3	1252	92.899662157589	163
3	1252	92.899662157589	164
3	1274	94.315344499553	165
3	1274	94.315344499553	166
3	1274	94.315344499553	167
3	1303	95.845763118584	168
3	1303	95.845763118584	169
3	1303	95.845763118584	170
3	1319	97.241895197868	171
3	1319	97.241895197868	172
3	1319	97.241895197868	173
3	1340	98.686302409776	174
3	1340	98.686302409776	175
3	1340	98.686302409776	176
3	1366	99.751364253068	177
3	1366	99.751364253068	178
3	1366	99.751364253068	179
3	1380	100.886328543196	180
3	1380	100.886328543196	181
3	1380	100.886328543196	182
3	1406	102.483484455324	183
3	1406	102.483484455324	184
3	1406	102.483484455324	185
3	1419	104.20473839932	186
3	1419	104.20473839932	187
3	1419	104.20473839932	188
3	1441	105.363205282807	189
3	1441	105.363205282807	190
3	1441	105.363205282807	191
3	1459	107.073042667438	192
3	1459	107.073042667438	193
3	1459	107.073042667438	194
3	1477	108.932259841537	195
3	1477	108.932259841537	196
3	1477	108.932259841537	197
3	1495	110.640245030995	198
3	1495	110.640245030995	199
3	1495	110.640245030995	200
3	1520	111.837595998031	201
3	1520	111.837595998031	202
3	1520	111.837595998031	203
3	1542	112.795361910413	204
3	1542	112.795361910413	205
3	1542	112.795361910413	206
3	1568	114.749036540687	207
3	1568	114.749036540687	208
3	1568	114.749036540687	209
3	1600	116.775898564758	210
3	1600	116.775898564758	211
3	1600	116.775898564758	212
3	1616	117.861162186639	213
3	1616	117.861162186639	214
3	1616	117.861162186639	215
3	1641	119.663990015999	216
3	1641	119.663990015999	217
3	1641	119.663990015999	218
3	1662	120.881875938017	219
3	1662	120.881875938017	220
3	1662	120.881875938017	221
3	1682	122.086412824203	222
3	1682	122.086412824203	223
3	1682	122.086412824203	224
3	1706	123.158623165678	225
3	1706	123.158623165678	226
3	1706	123.158623165678	227
3	1721	124.500253603745	228
3	1721	124.500253603745	229
3	1721	124.500253603745	230
3	1744	126.339160592564	231
3	1744	126.339160592564	232
3	1744	126.339160592564	233
3	1763	127.836730454475	234
3	1763	127.836730454475	235
3	1763	127.836730454475	236
3	1791	129.748760874133	237
3	1791	129.748760874133	238
3	1791	129.748760874133	239
3	1813	130.802510482856	240
3	1813	130.802510482856	241
3	1813	130.802510482856	242
3	1842	131.889197402717	243
3	1842	131.889197402717	244
3	1842	131.889197402717	245
3	1859	133.720758848452	246
3	1859	133.720758848452	247
3	1859	133.720758848452	248
3	1874	134.951772693787	249
3	1874	134.951772693787	250
3	1874	134.951772693787	251
3	1903	136.54817093997	252
3	1903	136.54817093997	253
3	1903	136.54817093997	254
3	1924	138.252897373069	255
3	1924	138.252897373069	256
3	1924	138.252897373069	257
3	1949	139.877190686553	258
3	1949	139.877190686553	259
3	1949	139.877190686553	260
3	1977	141.053470087815	261
3	1977	141.053470087815	262
3	1977	141.053470087815	263
3	1992	142.631747040225	264
3	1992	142.631747040225	265
3	1992	142.631747040225	266
3	2013	144.493606999016	267
3	2013	144.493606999016	268
3	2013	144.493606999016	269
3	2025	146.022909368413	270
3	2025	146.022909368413	271
3	2025	146.022909368413	272
3	2057	147.178234598923	273
3	2057	147.178234598923	274
3	2057	147.178234598923	275
3	2070	148.777889731185	276
3	2070	148.777889731185	277
3	2070	148.777889731185	278
3	2097	150.712662643652	279
3	2097	150.712662643652	280
3	2097	150.712662643652	281
3	2118	152.43713369153	282
3	2118	152.43713369153	283
3	2118	152.43713369153	284
3	2143	154.295842381447	285
3	2143	154.295842381447	286
3	2143	154.295842381447	287
3	2155	156.17734801209	288
3	2155	156.17734801209	289
3	2155	156.17734801209	290
3	2179	158.071417574121	291
3	2179	158.071417574121	292
3	2179	158.071417574121	293
3	2201	159.113592787986	294
3	2201	159.113592787986	295
3	2201	159.113592787986	296
3	2225	161.071720082828	297
3	2225	161.071720082828	298
3	2225	161.071720082828	299
3	2251	162.565401645585	300
3	2251	162.565401645585	301
3	2251	162.565401645585	302
3	2270	164.542487101077	303
3	2270	164.542487101077	304
3	2270	164.542487101077	305
3	2294	165.958706411373	306
3	2294	165.958706411373	307
3	2294	165.958706411373	308
3	2320	167.074733038367	309
3	2320	167.074733038367	310
3	2320	167.074733038367	311
3	2340	169.048585835159	312
3	2340	169.048585835159	313
3	2340	169.048585835159	314
3	2363	170.659315792287	315
3	2363	170.659315792287	316
3	2363	170.659315792287	317
3	2392	172.381256984277	318
3	2392	172.381256984277	319
3	2392	172.381256984277	320
3	2410	174.310683550931	321
3	2410	174.310683550931	322
3	2410	174.310683550931	323
3	2435	176.605544667564	324
3	2435	176.605544667564	325
3	2435	176.605544667564	326
3	2464	178.251174562119	327
3	2464	178.251174562119	328
3	2464	178.251174562119	329
3	2482	179.480034432832	330
3	2482	179.480034432832	331
3	2482	179.480034432832	332
3	2504	181.138512931479	333
3	2504	181.138512931479	334
3	2504	181.138512931479	335
3	2532	182.380097563928	336
3	2532	182.380097563928	337
3	2532	182.380097563928	338
3	2550	184.138192137514	339
3	2550	184.138192137514	340
3	2550	184.138192137514	341
3	2576	185.898476778532	342
3	2576	185.898476778532	343
3	2576	185.898476778532	344
3	2593	187.039668926024	345
3	2593	187.039668926024	346
3	2593	187.039668926024	347
3	2623	188.395023997866	348
3	2623	188.395023997866	349
3	2623	188.395023997866	350
3	2643	190.050645363738	351
3	2643	190.050645363738	352
3	2643	190.050645363738	353
3	2656	191.795960674065	354
3	2656	191.795960674065	355
3	2656	191.795960674065	356
3	2677	193.66819055575	357
3	2677	193.66819055575	358
3	2677	193.66819055575	359
3	2697	194.888856924838	360
3	2697	194.888856924838	361
3	2697	194.888856924838	362
3	2722	196.562009911511	363
3	2722	196.562009911511	364
3	2722	196.562009911511	365
3	2749	198.30495021435	366
3	2749	198.30495021435	367
3	2749	198.30495021435	368
3	2773	200.037506908825	369
3	2773	200.037506908825	370
3	2773	200.037506908825	371
3	2792	201.474131940298	372
3	2792	201.474131940298	373
3	2792	201.474131940298	374
3	2821	202.764846666102	375
3	2821	202.764846666102	376
3	2821	202.764846666102	377
3	2843	204.665833308691	378
3	2843	204.665833308691	379
3	2843	204.665833308691	380
3	2858	205.889026958191	381
3	2858	205.889026958191	382
3	2858	205.889026958191	383
3	2883	207.165987974432	384
3	2883	207.165987974432	385
3	2883	207.165987974432	386
3	2906	208.606431579014	387
3	2906	208.606431579014	388
3	2906	208.606431579014	389
3	2930	210.304969686105	390
3	2930	210.304969686105	391
3	2930	210.304969686105	392
3	2951	211.589812750249	393
3	2951	211.589812750249	394
3	2951	211.589812750249	395
3	2973	212.962130421895	396
3	2973	212.962130421895	397
3	2973	212.962130421895	398
3	2994	214.907313175786	399
3	2994	214.907313175786	400
3	2994	214.907313175786	401
3	3027	216.660245276502	402
3	3027	216.660245276502	403
3	3027	216.660245276502	404
3	3046	217.77540328007	405
3	3046	217.77540328007	406
3	3046	217.77540328007	407
3	3066	219.05029049834	408
3	3066	219.05029049834	409
3	3066	219.05029049834	410
3	3088	220.462297632761	411
3	3088	220.462297632761	412
3	3088	220.462297632761	413
3	3114	221.989925677363	414
3	3114	221.989925677363	415
3	3114	221.989925677363	416
3	3142	223.339610644051	417
3	3142	223.339610644051	418
3	3142	223.339610644051	419
3	3155	224.871212873564	420
3	3155	224.871212873564	421
3	3155	224.871212873564	422
3	3179	226.413367497127	423
3	3179	226.413367497127	424
3	3179	226.413367497127	425
3	3204	227.437249336789	426
3	3204	227.437249336789	427
3	3204	227.437249336789	428
3	3231	229.356263866902	429
3	3231	229.356263866902	430
3	3231	229.356263866902	431
3	3245	231.092990038089	432
3	3245	231.092990038089	433
3	3245	231.092990038089	434
3	3271	232.806270964941	435
3	3271	232.806270964941	436
3	3271	232.806270964941	437
3	3295	234.1011002953	438
3	3295	234.1011002953	439
3	3295	234.1011002953	440
3	3314	236.041669166249	441
3	3314	236.041669166249	442
3	3314	236.041669166249	443
3	3339	237.06490252061	444
3	3339	237.06490252061	445
3	3339	237.06490252061	446
3	3361	238.463283876324	447
3	3361	238.463283876324	448
3	3361	238.463283876324	449
3	3383	239.693456072045	450
3	3383	239.693456072045	451
3	3383	239.693456072045	452
4	12	0.163252200566	0
4	12	0.163252200566	1
4	12	0.163252200566	2
4	29	1.744752904091	3
4	29	1.744752904091	4
4	29	1.744752904091	5
4	52	3.222471611036	6
4	52	3.222471611036	7
4	52	3.222471611036	8
4	79	6.259899036268	9
4	79	6.259899036268	10
4	79	6.259899036268	11
4	105	7.584815615645	12
4	105	7.584815615645	13
4	105	7.584815615645	14
4	127	8.717762707716	15
4	127	8.717762707716	16
4	127	8.717762707716	17
4	152	10.234717879313	18
4	152	10.234717879313	19
4	152	10.234717879313	20
4	170	11.847639441548	21
4	170	11.847639441548	22
4	170	11.847639441548	23
4	211	16.483534612126	24
4	211	16.483534612126	25
4	211	16.483534612126	26
4	236	18.180010180814	27
4	236	18.180010180814	28
4	236	18.180010180814	29
4	261	19.265325755364	30
4	261	19.265325755364	31
4	261	19.265325755364	32
4	278	20.878126923294	33
4	278	20.878126923294	34
4	278	20.878126923294	35
4	305	22.505363760752	36
4	305	22.505363760752	37
4	305	22.505363760752	38
4	323	24.172516565293	39
4	323	24.172516565293	40
4	323	24.172516565293	41
4	345	25.93466461157	42
4	345	25.93466461157	43
4	345	25.93466461157	44
4	373	27.39005897113	45
4	373	27.39005897113	46
4	373	27.39005897113	47
4	394	29.092997938781	48
4	394	29.092997938781	49
4	394	29.092997938781	50
4	417	30.260962084369	51
4	417	30.260962084369	52
4	417	30.260962084369	53
4	453	33.338860394503	54
4	453	33.338860394503	55
4	453	33.338860394503	56
4	474	34.74460280754	57
4	474	34.74460280754	58
4	474	34.74460280754	59
4	498	35.781398017971	60
4	498	35.781398017971	61
4	498	35.781398017971	62
4	519	37.236399604342	63
4	519	37.236399604342	64
4	519	37.236399604342	65
4	540	38.787011821949	66
4	540	38.787011821949	67
4	540	38.787011821949	68
4	565	40.574669612996	69
4	565	40.574669612996	70
4	565	40.574669612996	71
4	585	42.053612426189	72
4	585	42.053612426189	73
4	585	42.053612426189	74
4	610	43.060357540322	75
4	610	43.060357540322	76
4	610	43.060357540322	77
4	630	44.848536271093	78
4	630	44.848536271093	79
4	630	44.848536271093	80
4	655	46.621895804779	81
4	655	46.621895804779	82
4	655	46.621895804779	83
4	694	50.44185759144	84
4	694	50.44185759144	85
4	694	50.44185759144	86
4	720	52.146349912296	87
4	720	52.146349912296	88
4	720	52.146349912296	89
4	752	53.472183975131	90
4	752	53.472183975131	91
4	752	53.472183975131	92
4	773	54.85231791677	93
4	773	54.85231791677	94
4	773	54.85231791677	95
4	795	56.811795749194	96
4	795	56.811795749194	97
4	795	56.811795749194	98
4	826	60.679506239292	99
4	826	60.679506239292	100
4	826	60.679506239292	101
4	847	61.989193588268	102
4	847	61.989193588268	103
4	847	61.989193588268	104
4	870	63.974025498018	105
4	870	63.974025498018	106
4	870	63.974025498018	107
4	897	65.66751073855	108
4	897	65.66751073855	109
4	897	65.66751073855	110
4	920	67.428131884288	111
4	920	67.428131884288	112
4	920	67.428131884288	113
4	940	68.631352565635	114
4	940	68.631352565635	115
4	940	68.631352565635	116
4	966	70.307446841514	117
4	966	70.307446841514	118
4	966	70.307446841514	119
4	994	73.69132177433	120
4	994	73.69132177433	121
4	994	73.69132177433	122
4	1009	75.558911253549	123
4	1009	75.558911253549	124
4	1009	75.558911253549	125
4	1031	77.058420452763	126
4	1031	77.058420452763	127
4	1031	77.058420452763	128
4	1055	78.5674656239	129
4	1055	78.5674656239	130
4	1055	78.5674656239	131
4	1083	81.278593345451	132
4	1083	81.278593345451	133
4	1083	81.278593345451	134
4	1105	82.845417194289	135
4	1105	82.845417194289	136
4	1105	82.845417194289	137
4	1127	84.500081459744	138
4	1127	84.500081459744	139
4	1127	84.500081459744	140
4	1151	86.380094688093	141
4	1151	86.380094688093	142
4	1151	86.380094688093	143
4	1176	87.562968394398	144
4	1176	87.562968394398	145
4	1176	87.562968394398	146
4	1202	89.460981232512	147
4	1202	89.460981232512	148
4	1202	89.460981232512	149
4	1230	90.936076831217	150
4	1230	90.936076831217	151
4	1230	90.936076831217	152
4	1251	92.893332626206	153
4	1251	92.893332626206	154
4	1251	92.893332626206	155
4	1273	94.315228301954	156
4	1273	94.315228301954	157
4	1273	94.315228301954	158
4	1296	95.822950260258	159
4	1296	95.822950260258	160
4	1296	95.822950260258	161
4	1327	97.269078014747	162
4	1327	97.269078014747	163
4	1327	97.269078014747	164
4	1338	98.681202742997	165
4	1338	98.681202742997	166
4	1338	98.681202742997	167
4	1388	100.922536813352	168
4	1388	100.922536813352	169
4	1388	100.922536813352	170
4	1427	104.270575815211	171
4	1427	104.270575815211	172
4	1427	104.270575815211	173
4	1445	105.375503405304	174
4	1445	105.375503405304	175
4	1445	105.375503405304	176
4	1460	107.074627253928	177
4	1460	107.074627253928	178
4	1460	107.074627253928	179
4	1478	108.93275292517	180
4	1478	108.93275292517	181
4	1478	108.93275292517	182
4	1507	110.671791533706	183
4	1507	110.671791533706	184
4	1507	110.671791533706	185
4	1532	111.878632669559	186
4	1532	111.878632669559	187
4	1532	111.878632669559	188
4	1550	112.821283693454	189
4	1550	112.821283693454	190
4	1550	112.821283693454	191
4	1572	114.754338892448	192
4	1572	114.754338892448	193
4	1572	114.754338892448	194
4	1596	116.76191405569	195
4	1596	116.76191405569	196
4	1596	116.76191405569	197
4	1617	117.862609981085	198
4	1617	117.862609981085	199
4	1617	117.862609981085	200
4	1640	119.662369331963	201
4	1640	119.662369331963	202
4	1640	119.662369331963	203
4	1666	120.891877489504	204
4	1666	120.891877489504	205
4	1666	120.891877489504	206
4	1688	122.097730256505	207
4	1688	122.097730256505	208
4	1688	122.097730256505	209
4	1720	124.493274572831	210
4	1720	124.493274572831	211
4	1720	124.493274572831	212
4	1752	126.35685421803	213
4	1752	126.35685421803	214
4	1752	126.35685421803	215
4	1764	127.841927386619	216
4	1764	127.841927386619	217
4	1764	127.841927386619	218
4	1799	129.786896987467	219
4	1799	129.786896987467	220
4	1799	129.786896987467	221
4	1814	130.805302555212	222
4	1814	130.805302555212	223
4	1814	130.805302555212	224
4	1838	131.877090827404	225
4	1838	131.877090827404	226
4	1838	131.877090827404	227
4	1885	134.978186484778	228
4	1885	134.978186484778	229
4	1885	134.978186484778	230
4	1900	136.539767825327	231
4	1900	136.539767825327	232
4	1900	136.539767825327	233
4	1928	138.261194297626	234
4	1928	138.261194297626	235
4	1928	138.261194297626	236
4	1953	139.88331762374	237
4	1953	139.88331762374	238
4	1953	139.88331762374	239
4	1978	141.057827430426	240
4	1978	141.057827430426	241
4	1978	141.057827430426	242
4	1996	142.63638135086	243
4	1996	142.63638135086	244
4	1996	142.63638135086	245
4	2028	146.025619993158	246
4	2028	146.025619993158	247
4	2028	146.025619993158	248
4	2050	147.162596738448	249
4	2050	147.162596738448	250
4	2050	147.162596738448	251
4	2078	148.802744975187	252
4	2078	148.802744975187	253
4	2078	148.802744975187	254
4	2094	150.710110752228	255
4	2094	150.710110752228	256
4	2094	150.710110752228	257
4	2119	152.442390808597	258
4	2119	152.442390808597	259
4	2119	152.442390808597	260
4	2154	156.171351816661	261
4	2154	156.171351816661	262
4	2154	156.171351816661	263
4	2187	158.085157262662	264
4	2187	158.085157262662	265
4	2187	158.085157262662	266
4	2208	159.136575650508	267
4	2208	159.136575650508	268
4	2208	159.136575650508	269
4	2234	161.090536872657	270
4	2234	161.090536872657	271
4	2234	161.090536872657	272
4	2255	162.607802712276	273
4	2255	162.607802712276	274
4	2255	162.607802712276	275
4	2281	164.568721037327	276
4	2281	164.568721037327	277
4	2281	164.568721037327	278
4	2303	165.984748985172	279
4	2303	165.984748985172	280
4	2303	165.984748985172	281
4	2325	167.096957407585	282
4	2325	167.096957407585	283
4	2325	167.096957407585	284
4	2341	169.052556055182	285
4	2341	169.052556055182	286
4	2341	169.052556055182	287
4	2371	170.686114982912	288
4	2371	170.686114982912	289
4	2371	170.686114982912	290
4	2393	172.382012727305	291
4	2393	172.382012727305	292
4	2393	172.382012727305	293
4	2411	174.313738478085	294
4	2411	174.313738478085	295
4	2411	174.313738478085	296
4	2439	176.618778006154	297
4	2439	176.618778006154	298
4	2439	176.618778006154	299
4	2458	178.230629965958	300
4	2458	178.230629965958	301
4	2458	178.230629965958	302
4	2483	179.484218515109	303
4	2483	179.484218515109	304
4	2483	179.484218515109	305
4	2511	181.164592192061	306
4	2511	181.164592192061	307
4	2511	181.164592192061	308
4	2537	182.396004426055	309
4	2537	182.396004426055	310
4	2537	182.396004426055	311
4	2558	184.181929421846	312
4	2558	184.181929421846	313
4	2558	184.181929421846	314
4	2601	187.0878130774	315
4	2601	187.0878130774	316
4	2601	187.0878130774	317
4	2618	188.383825138356	318
4	2618	188.383825138356	319
4	2618	188.383825138356	320
4	2655	191.795743236792	321
4	2655	191.795743236792	322
4	2655	191.795743236792	323
4	2678	193.66864373991	324
4	2678	193.66864373991	325
4	2678	193.66864373991	326
4	2709	194.925629061264	327
4	2709	194.925629061264	328
4	2709	194.925629061264	329
4	2734	196.605296660926	330
4	2734	196.605296660926	331
4	2734	196.605296660926	332
4	2756	198.317473214443	333
4	2756	198.317473214443	334
4	2756	198.317473214443	335
4	2774	200.040112297107	336
4	2774	200.040112297107	337
4	2774	200.040112297107	338
4	2799	201.499264027909	339
4	2799	201.499264027909	340
4	2799	201.499264027909	341
4	2817	202.749660085933	342
4	2817	202.749660085933	343
4	2817	202.749660085933	344
4	2839	204.654774309784	345
4	2839	204.654774309784	346
4	2839	204.654774309784	347
4	2857	205.885028232872	348
4	2857	205.885028232872	349
4	2857	205.885028232872	350
4	2882	207.15989811515	351
4	2882	207.15989811515	352
4	2882	207.15989811515	353
4	2901	208.594980256638	354
4	2901	208.594980256638	355
4	2901	208.594980256638	356
4	2929	210.3013911345	357
4	2929	210.3013911345	358
4	2929	210.3013911345	359
4	2952	211.590615958537	360
4	2952	211.590615958537	361
4	2952	211.590615958537	362
4	2980	212.9935198586	363
4	2980	212.9935198586	364
4	2980	212.9935198586	365
4	2998	214.942124505139	366
4	2998	214.942124505139	367
4	2998	214.942124505139	368
4	3017	216.629772456224	369
4	3017	216.629772456224	370
4	3017	216.629772456224	371
4	3041	217.762525241866	372
4	3041	217.762525241866	373
4	3041	217.762525241866	374
4	3074	219.096333265687	375
4	3074	219.096333265687	376
4	3074	219.096333265687	377
4	3089	220.467272087833	378
4	3089	220.467272087833	379
4	3089	220.467272087833	380
4	3113	221.988425692861	381
4	3113	221.988425692861	382
4	3113	221.988425692861	383
4	3138	223.327098893699	384
4	3138	223.327098893699	385
4	3138	223.327098893699	386
4	3163	224.911457999858	387
4	3163	224.911457999858	388
4	3163	224.911457999858	389
4	3178	226.409560058268	390
4	3178	226.409560058268	391
4	3178	226.409560058268	392
4	3203	227.435587681184	393
4	3203	227.435587681184	394
4	3203	227.435587681184	395
4	3235	229.368689013894	396
4	3235	229.368689013894	397
4	3235	229.368689013894	398
4	3253	231.145066395056	399
4	3253	231.145066395056	400
4	3253	231.145066395056	401
4	3270	232.804995161774	402
4	3270	232.804995161774	403
4	3270	232.804995161774	404
4	3296	234.106428649186	405
4	3296	234.106428649186	406
4	3296	234.106428649186	407
4	3319	236.053323820559	408
4	3319	236.053323820559	409
4	3319	236.053323820559	410
4	3343	237.082132218545	411
4	3343	237.082132218545	412
4	3343	237.082132218545	413
4	3362	238.469747904013	414
4	3362	238.469747904013	415
4	3362	238.469747904013	416
4	3382	239.690278806524	417
4	3382	239.690278806524	418
4	3382	239.690278806524	419
5	37	1.771152856894	0
5	37	1.771152856894	1
5	37	1.771152856894	2
5	56	3.230770954706	3
5	56	3.230770954706	4
5	56	3.230770954706	5
5	83	6.270944648526	6
5	83	6.270944648526	7
5	83	6.270944648526	8
5	112	7.605403042796	9
5	112	7.605403042796	10
5	112	7.605403042796	11
5	151	10.234262960361	12
5	151	10.234262960361	13
5	151	10.234262960361	14
5	193	13.28784946587	15
5	193	13.28784946587	16
5	193	13.28784946587	17
5	218	16.495289996868	18
5	218	16.495289996868	19
5	218	16.495289996868	20
5	243	18.193615002343	21
5	243	18.193615002343	22
5	243	18.193615002343	23
5	286	20.942204116282	24
5	286	20.942204116282	25
5	286	20.942204116282	26
5	301	22.480495018973	27
5	301	22.480495018973	28
5	301	22.480495018973	29
5	324	24.173874385795	30
5	324	24.173874385795	31
5	324	24.173874385795	32
5	349	25.944426861215	33
5	349	25.944426861215	34
5	349	25.944426861215	35
5	377	27.403797836089	36
5	377	27.403797836089	37
5	377	27.403797836089	38
5	398	29.109689076018	39
5	398	29.109689076018	40
5	398	29.109689076018	41
5	424	30.272510136423	42
5	424	30.272510136423	43
5	424	30.272510136423	44
5	487	34.769542040934	45
5	487	34.769542040934	46
5	487	34.769542040934	47
5	551	38.818151587904	48
5	551	38.818151587904	49
5	551	38.818151587904	50
5	569	40.586272953941	51
5	569	40.586272953941	52
5	569	40.586272953941	53
5	591	42.064642109826	54
5	591	42.064642109826	55
5	591	42.064642109826	56
5	641	44.878236846749	57
5	641	44.878236846749	58
5	641	44.878236846749	59
5	660	46.633894360158	60
5	660	46.633894360158	61
5	660	46.633894360158	62
5	703	50.472214521696	63
5	703	50.472214521696	64
5	703	50.472214521696	65
5	730	52.180490076601	66
5	730	52.180490076601	67
5	730	52.180490076601	68
5	744	53.44903875415	69
5	744	53.44903875415	70
5	744	53.44903875415	71
5	777	54.872358428509	72
5	777	54.872358428509	73
5	777	54.872358428509	74
5	800	56.826925019112	75
5	800	56.826925019112	76
5	800	56.826925019112	77
5	827	60.679512329862	78
5	827	60.679512329862	79
5	827	60.679512329862	80
5	852	62.003783867543	81
5	852	62.003783867543	82
5	852	62.003783867543	83
5	877	63.989384485971	84
5	877	63.989384485971	85
5	877	63.989384485971	86
5	916	67.423205778249	87
5	916	67.423205778249	88
5	916	67.423205778249	89
5	939	68.630132895124	90
5	939	68.630132895124	91
5	939	68.630132895124	92
5	986	73.644127691221	93
5	986	73.644127691221	94
5	986	73.644127691221	95
5	1013	75.561200935046	96
5	1013	75.561200935046	97
5	1013	75.561200935046	98
5	1038	77.071604382924	99
5	1038	77.071604382924	100
5	1038	77.071604382924	101
5	1093	81.30466018469	102
5	1093	81.30466018469	103
5	1093	81.30466018469	104
5	1110	82.854865941171	105
5	1110	82.854865941171	106
5	1110	82.854865941171	107
5	1134	84.516023151502	108
5	1134	84.516023151502	109
5	1134	84.516023151502	110
5	1165	86.409188672486	111
5	1165	86.409188672486	112
5	1165	86.409188672486	113
5	1181	87.578673454279	114
5	1181	87.578673454279	115
5	1181	87.578673454279	116
5	1211	89.476143267061	117
5	1211	89.476143267061	118
5	1211	89.476143267061	119
5	1237	90.950751986249	120
5	1237	90.950751986249	121
5	1237	90.950751986249	122
5	1260	92.91030899364	123
5	1260	92.91030899364	124
5	1260	92.91030899364	125
5	1282	94.35349354166	126
5	1282	94.35349354166	127
5	1282	94.35349354166	128
5	1309	95.87845280945	129
5	1309	95.87845280945	130
5	1309	95.87845280945	131
5	1350	98.70203822488	132
5	1350	98.70203822488	133
5	1350	98.70203822488	134
5	1370	99.770686120474	135
5	1370	99.770686120474	136
5	1370	99.770686120474	137
5	1389	100.924009543773	138
5	1389	100.924009543773	139
5	1389	100.924009543773	140
5	1423	104.238951765784	141
5	1423	104.238951765784	142
5	1423	104.238951765784	143
5	1485	108.977572255542	144
5	1485	108.977572255542	145
5	1485	108.977572255542	146
5	1499	110.653817548948	147
5	1499	110.653817548948	148
5	1499	110.653817548948	149
5	1525	111.858613617204	150
5	1525	111.858613617204	151
5	1525	111.858613617204	152
5	1555	112.833584951136	153
5	1555	112.833584951136	154
5	1555	112.833584951136	155
5	1580	114.772737227462	156
5	1580	114.772737227462	157
5	1580	114.772737227462	158
5	1604	116.791146169199	159
5	1604	116.791146169199	160
5	1604	116.791146169199	161
5	1626	117.877266522069	162
5	1626	117.877266522069	163
5	1626	117.877266522069	164
5	1645	119.673035383335	165
5	1645	119.673035383335	166
5	1645	119.673035383335	167
5	1667	120.89996383928	168
5	1667	120.89996383928	169
5	1667	120.89996383928	170
5	1689	122.105299864479	171
5	1689	122.105299864479	172
5	1689	122.105299864479	173
5	1726	124.507424138658	174
5	1726	124.507424138658	175
5	1726	124.507424138658	176
5	1772	127.858268092109	177
5	1772	127.858268092109	178
5	1772	127.858268092109	179
5	1795	129.773164790183	180
5	1795	129.773164790183	181
5	1795	129.773164790183	182
5	1818	130.813742316579	183
5	1818	130.813742316579	184
5	1818	130.813742316579	185
5	1843	131.893726044253	186
5	1843	131.893726044253	187
5	1843	131.893726044253	188
5	1881	134.96435214608	189
5	1881	134.96435214608	190
5	1881	134.96435214608	191
5	1907	136.551749838533	192
5	1907	136.551749838533	193
5	1907	136.551749838533	194
5	1932	138.269486458537	195
5	1932	138.269486458537	196
5	1932	138.269486458537	197
5	1960	139.893414928799	198
5	1960	139.893414928799	199
5	1960	139.893414928799	200
5	2003	142.650733519772	201
5	2003	142.650733519772	202
5	2003	142.650733519772	203
5	2036	146.04450283418	204
5	2036	146.04450283418	205
5	2036	146.04450283418	206
5	2056	147.173974388883	207
5	2056	147.173974388883	208
5	2056	147.173974388883	209
5	2082	148.816553636731	210
5	2082	148.816553636731	211
5	2082	148.816553636731	212
5	2104	150.729274340493	213
5	2104	150.729274340493	214
5	2104	150.729274340493	215
5	2127	152.458698699192	216
5	2127	152.458698699192	217
5	2127	152.458698699192	218
5	2163	156.188867380676	219
5	2163	156.188867380676	220
5	2163	156.188867380676	221
5	2184	158.082058009302	222
5	2184	158.082058009302	223
5	2184	158.082058009302	224
5	2209	159.144535462461	225
5	2209	159.144535462461	226
5	2209	159.144535462461	227
5	2230	161.084769042771	228
5	2230	161.084769042771	229
5	2230	161.084769042771	230
5	2259	162.632133918095	231
5	2259	162.632133918095	232
5	2259	162.632133918095	233
5	2275	164.556486671481	234
5	2275	164.556486671481	235
5	2275	164.556486671481	236
5	2302	165.983387260501	237
5	2302	165.983387260501	238
5	2302	165.983387260501	239
5	2324	167.093786141785	240
5	2324	167.093786141785	241
5	2324	167.093786141785	242
5	2350	169.072037657611	243
5	2350	169.072037657611	244
5	2350	169.072037657611	245
5	2367	170.671534622468	246
5	2367	170.671534622468	247
5	2367	170.671534622468	248
5	2418	174.335540678607	249
5	2418	174.335540678607	250
5	2418	174.335540678607	251
5	2440	176.622769654251	252
5	2440	176.622769654251	253
5	2440	176.622769654251	254
5	2468	178.26122121913	255
5	2468	178.26122121913	256
5	2468	178.26122121913	257
5	2490	179.497831841668	258
5	2490	179.497831841668	259
5	2490	179.497831841668	260
5	2515	181.186425630112	261
5	2515	181.186425630112	262
5	2515	181.186425630112	263
5	2536	182.393881250999	264
5	2536	182.393881250999	265
5	2536	182.393881250999	266
5	2563	184.195034778323	267
5	2563	184.195034778323	268
5	2563	184.195034778323	269
5	2597	187.075059547126	270
5	2597	187.075059547126	271
5	2597	187.075059547126	272
5	2624	188.398870637636	273
5	2624	188.398870637636	274
5	2624	188.398870637636	275
5	2665	191.813907405736	276
5	2665	191.813907405736	277
5	2665	191.813907405736	278
5	2687	193.684088557636	279
5	2687	193.684088557636	280
5	2687	193.684088557636	281
5	2702	194.902470812664	282
5	2702	194.902470812664	283
5	2702	194.902470812664	284
5	2727	196.579433169754	285
5	2727	196.579433169754	286
5	2727	196.579433169754	287
5	2755	198.317433043183	288
5	2755	198.317433043183	289
5	2755	198.317433043183	290
5	2781	200.051339722879	291
5	2781	200.051339722879	292
5	2781	200.051339722879	293
5	2803	201.511511310562	294
5	2803	201.511511310562	295
5	2803	201.511511310562	296
5	2822	202.770858034675	297
5	2822	202.770858034675	298
5	2822	202.770858034675	299
5	2865	205.902538542477	300
5	2865	205.902538542477	301
5	2865	205.902538542477	302
5	2887	207.172358757719	303
5	2887	207.172358757719	304
5	2887	207.172358757719	305
5	2907	208.612161011048	306
5	2907	208.612161011048	307
5	2907	208.612161011048	308
5	2934	210.313578305482	309
5	2934	210.313578305482	310
5	2934	210.313578305482	311
5	2960	211.612291729085	312
5	2960	211.612291729085	313
5	2960	211.612291729085	314
5	3002	214.954193974472	315
5	3002	214.954193974472	316
5	3002	214.954193974472	317
5	3023	216.644960591136	318
5	3023	216.644960591136	319
5	3023	216.644960591136	320
5	3045	217.773800456115	321
5	3045	217.773800456115	322
5	3045	217.773800456115	323
5	3070	219.072933372086	324
5	3070	219.072933372086	325
5	3070	219.072933372086	326
5	3096	220.481123226789	327
5	3096	220.481123226789	328
5	3096	220.481123226789	329
5	3122	222.000711950237	330
5	3122	222.000711950237	331
5	3122	222.000711950237	332
5	3167	224.924143103141	333
5	3167	224.924143103141	334
5	3167	224.924143103141	335
5	3186	226.424407332745	336
5	3186	226.424407332745	337
5	3186	226.424407332745	338
5	3211	227.451051956021	339
5	3211	227.451051956021	340
5	3211	227.451051956021	341
5	3281	232.826173422822	342
5	3281	232.826173422822	343
5	3281	232.826173422822	344
5	3300	234.113791782497	345
5	3300	234.113791782497	346
5	3300	234.113791782497	347
5	3322	236.059926039465	348
5	3322	236.059926039465	349
5	3322	236.059926039465	350
5	3350	237.118172702889	351
5	3350	237.118172702889	352
5	3350	237.118172702889	353
5	3391	239.70630114436	354
5	3391	239.70630114436	355
5	3391	239.70630114436	356
6	40	1.781152856894	0
6	63	3.240770954706	1
6	87	6.280944648526	2
6	136	8.7378993535	3
6	161	10.255981765677	4
6	182	11.876218397959	5
6	196	13.29784946587	6
6	221	16.505289996868	7
6	224	16.534057428695	8
6	249	18.207628858527	9
6	333	24.197065683741	10
6	356	25.954426861215	11
6	402	29.119689076018	12
6	430	30.291841128705	13
6	462	33.361789909088	14
6	511	35.829604377455	15
6	554	38.828151587904	16
6	573	40.596272953941	17
6	666	46.643894360158	18
6	711	50.493905679736	19
6	733	52.190490076601	20
6	748	53.45903875415	21
6	802	56.833844271865	22
6	805	56.836925019112	23
6	861	62.019410771742	24
6	884	63.999384485971	25
6	1045	77.081604382924	26
6	1118	82.864865941171	27
6	1164	86.406007715949	28
6	1168	86.419188672486	29
6	1215	89.48468102431	30
6	1284	94.362790432729	31
6	1287	94.36349354166	32
6	1352	98.705898823318	33
6	1373	99.780686120474	34
6	1398	100.944651025102	35
6	1426	104.248951765784	36
6	1488	108.987572255542	37
6	1503	110.663817548948	38
6	1531	111.868613617204	39
6	1585	114.782737227462	40
6	1607	116.801146169199	41
6	1778	127.868268092109	42
6	1798	129.783164790183	43
6	1850	131.903726044253	44
6	1852	131.904374967158	45
6	1916	136.563204579177	46
6	1939	138.279486458537	47
6	1964	139.903414928799	48
6	2006	142.660733519772	49
6	2038	146.048412872178	50
6	2041	146.05450283418	51
6	2107	150.739274340493	52
6	2129	152.462505009462	53
6	2165	156.198705639085	54
6	2168	156.198867380676	55
6	2190	158.092058009302	56
6	2280	164.566486671481	57
6	2356	169.08450718513	58
6	2370	170.681534622468	59
6	2381	170.723662569809	60
6	2422	174.345540678607	61
6	2424	174.34988674603	62
6	2496	179.508341008849	63
6	2565	184.20450621009	64
6	2600	187.085059547126	65
6	2607	187.113528630935	66
6	2632	188.408870637636	67
6	2668	191.823907405736	68
6	2690	193.694088557636	69
6	2708	194.912470812664	70
6	2807	201.521511310562	71
6	2809	201.523813822924	72
6	2915	208.622161011048	73
6	2965	211.622291729085	74
6	2986	213.039555864506	75
6	3008	214.96636355905	76
6	3050	217.783800456115	77
6	3055	217.789486001108	78
6	3073	219.082933372086	79
6	3099	220.491123226789	80
6	3215	227.461051956021	81
6	3220	227.495037758362	82
6	3331	236.09805127069	83
7	60	3.238888558056	0
7	60	3.238888558056	1
7	91	6.293162546885	2
7	91	6.293162546885	3
7	134	8.7278993535	4
7	134	8.7278993535	5
7	159	10.245981765677	6
7	159	10.245981765677	7
7	177	11.866218397959	8
7	177	11.866218397959	9
7	222	16.524057428695	10
7	222	16.524057428695	11
7	244	18.197628858527	12
7	244	18.197628858527	13
7	331	24.187065683741	14
7	331	24.187065683741	15
7	353	25.948901182584	16
7	353	25.948901182584	17
7	378	27.413156824844	18
7	378	27.413156824844	19
7	425	30.281841128705	20
7	425	30.281841128705	21
7	460	33.351789909088	22
7	460	33.351789909088	23
7	482	34.755853133439	24
7	482	34.755853133439	25
7	509	35.819604377455	26
7	509	35.819604377455	27
7	544	38.801139120616	28
7	544	38.801139120616	29
7	617	43.08328901891	30
7	617	43.08328901891	31
7	635	44.866686454402	32
7	635	44.866686454402	33
7	709	50.483905679736	34
7	709	50.483905679736	35
7	756	53.484834906145	36
7	756	53.484834906145	37
7	799	56.823844271865	38
7	799	56.823844271865	39
7	834	60.692425700009	40
7	834	60.692425700009	41
7	856	62.009410771742	42
7	856	62.009410771742	43
7	878	63.99628682014	44
7	878	63.99628682014	45
7	949	68.669521682935	46
7	949	68.669521682935	47
7	1020	75.571836759561	48
7	1020	75.571836759561	49
7	1039	77.076369181124	50
7	1039	77.076369181124	51
7	1059	78.579133581481	52
7	1059	78.579133581481	53
7	1090	81.288763501688	54
7	1090	81.288763501688	55
7	1135	84.521497614979	56
7	1135	84.521497614979	57
7	1157	86.396007715949	58
7	1157	86.396007715949	59
7	1180	87.57500624822	60
7	1180	87.57500624822	61
7	1210	89.47468102431	62
7	1210	89.47468102431	63
7	1256	92.90651031962	64
7	1256	92.90651031962	65
7	1281	94.352790432729	66
7	1281	94.352790432729	67
7	1302	95.841651059362	68
7	1302	95.841651059362	69
7	1346	98.695898823318	70
7	1346	98.695898823318	71
7	1396	100.934651025102	72
7	1396	100.934651025102	73
7	1467	107.087650535308	74
7	1467	107.087650535308	75
7	1511	110.702779717992	76
7	1511	110.702779717992	77
7	1554	112.833440691867	78
7	1554	112.833440691867	79
7	1579	114.765477499021	80
7	1579	114.765477499021	81
7	1696	122.120946157567	82
7	1696	122.120946157567	83
7	1725	124.506599092047	84
7	1725	124.506599092047	85
7	1775	127.866662164386	86
7	1775	127.866662164386	87
7	1803	129.801177038972	88
7	1803	129.801177038972	89
7	1825	130.829094708719	90
7	1825	130.829094708719	91
7	1844	131.894374967158	92
7	1844	131.894374967158	93
7	1889	134.993215608945	94
7	1889	134.993215608945	95
7	1908	136.553204579177	96
7	1908	136.553204579177	97
7	1936	138.271945309335	98
7	1936	138.271945309335	99
7	1961	139.900553541421	100
7	1961	139.900553541421	101
7	2035	146.038412872178	102
7	2035	146.038412872178	103
7	2126	152.452505009462	104
7	2126	152.452505009462	105
7	2162	156.188705639085	106
7	2162	156.188705639085	107
7	2213	159.153894320903	108
7	2213	159.153894320903	109
7	2285	164.581221280183	110
7	2285	164.581221280183	111
7	2310	166.021668174915	112
7	2310	166.021668174915	113
7	2351	169.07450718513	114
7	2351	169.07450718513	115
7	2379	170.713662569809	116
7	2379	170.713662569809	117
7	2419	174.33988674603	118
7	2419	174.33988674603	119
7	2491	179.498341008849	120
7	2491	179.498341008849	121
7	2516	181.189805625711	122
7	2516	181.189805625711	123
7	2562	184.19450621009	124
7	2562	184.19450621009	125
7	2605	187.103528630935	126
7	2605	187.103528630935	127
7	2622	188.394377449202	128
7	2622	188.394377449202	129
7	2713	194.936443831328	130
7	2713	194.936443831328	131
7	2738	196.63050591959	132
7	2738	196.63050591959	133
7	2804	201.513813822924	134
7	2804	201.513813822924	135
7	2905	208.60543512522	136
7	2905	208.60543512522	137
7	2959	211.602845882729	138
7	2959	211.602845882729	139
7	2984	213.029555864506	140
7	2984	213.029555864506	141
7	3003	214.95636355905	142
7	3003	214.95636355905	143
7	3047	217.779486001108	144
7	3047	217.779486001108	145
7	3078	219.112674280521	146
7	3078	219.112674280521	147
7	3118	221.999869340737	148
7	3118	221.999869340737	149
7	3146	223.349914328729	150
7	3146	223.349914328729	151
7	3193	226.436764602256	152
7	3193	226.436764602256	153
7	3218	227.485037758362	154
7	3218	227.485037758362	155
7	3257	231.173733241769	156
7	3257	231.173733241769	157
7	3275	232.816068455881	158
7	3275	232.816068455881	159
7	3329	236.08805127069	160
7	3329	236.08805127069	161
7	3387	239.701517030477	162
7	3387	239.701517030477	163

