version 2
run General-0-20231008-07:01:11-16668
attr configname General
attr datetime 20231008-07:01:11
attr experiment General
attr inifile omnetpp.ini
attr iterationvars ""
attr iterationvarsf ""
attr measurement ""
attr network Network2
attr processid 16668
attr repetition 0
attr replication #0
attr resultdir results
attr runnumber 0
attr seedset 0
param Network2.node[*].transmissionTime "uniform(1s, 2s)"
param Network2.node[*].delayTime "uniform(0.01s, 0.2s)"
param Network2.node[*].processingTime exponential(0.01s)
param Network2.node[*].lossProbability 0.25

vector 0 Network2.node[0] txVector ETV
vector 1 Network2.node[1] txVector ETV
vector 2 Network2.node[3] txVector ETV
vector 3 Network2.node[2] txVector ETV
vector 4 Network2.node[6] txVector ETV
vector 5 Network2.node[4] txVector ETV
vector 6 Network2.node[5] rxVector ETV
0	1	0.114274565438	0
0	24	1.707119181827	1
0	47	3.275163745582	2
0	49	4.954043279244	3
0	72	6.674675930832	4
0	74	8.286771653295	5
0	97	9.903705651947	6
0	120	11.511536318651	7
0	135	12.670505905133	8
0	158	14.293351998395	9
0	181	15.412079712684	10
0	200	16.421436414431	11
0	223	18.099252953735	12
0	246	20.077823877643	13
0	269	21.721814074163	14
0	292	23.075860738597	15
0	294	24.176087625167	16
0	317	26.095570238149	17
0	319	27.12879262453	18
0	342	29.111367581254	19
0	365	30.1657055673	20
0	367	31.864803644903	21
0	390	33.857200040556	22
0	413	35.34765884241	23
0	436	36.826255168839	24
0	459	38.41457228626	25
0	482	40.294869890743	26
0	497	41.412401748196	27
0	516	42.577360619631	28
0	518	44.539297003139	29
0	525	45.831444533847	30
0	548	47.387093771089	31
0	571	48.6187953966	32
0	594	50.399222045744	33
0	617	52.261413559856	34
0	619	53.275361958033	35
0	642	54.808827634275	36
0	665	55.940310430087	37
0	685	57.600350291774	38
0	687	59.525513721703	39
0	706	61.240692470529	40
0	708	62.750709323752	41
0	710	64.286886823205	42
0	721	65.968279335256	43
0	744	67.097691672928	44
0	746	68.854470319189	45
0	756	70.490531375706	46
0	779	71.948670200612	47
0	781	73.897967680199	48
0	804	75.834714157348	49
0	827	76.934329083496	50
0	829	77.966794379595	51
0	852	79.546946099102	52
0	875	81.536355873877	53
0	898	83.358915320672	54
0	921	85.263863662798	55
0	944	86.396678662933	56
0	967	88.030676358221	57
0	969	89.726753526674	58
0	992	91.105079669812	59
0	1015	92.560523816225	60
0	1038	94.462006806935	61
0	1057	96.341241570729	62
0	1080	97.843951115226	63
0	1082	98.846654329523	64
0	1105	100.493850981425	65
0	1128	102.484992635278	66
0	1151	103.987713398952	67
0	1153	105.894067632109	68
0	1176	107.474174540099	69
0	1199	108.535253078984	70
0	1201	110.50547488274	71
0	1224	112.169340949114	72
0	1247	114.139834645046	73
0	1262	115.406531520728	74
0	1264	116.648433226002	75
0	1284	118.080714708967	76
0	1307	120.064140944583	77
0	1330	122.049074249882	78
0	1332	123.448886391781	79
0	1334	125.120269875349	80
0	1357	126.464987997505	81
0	1380	128.298303807694	82
0	1403	130.165470964582	83
0	1405	131.472847083657	84
0	1407	133.010126112568	85
0	1409	134.284701162557	86
0	1411	135.293391081345	87
0	1434	136.31833581075	88
0	1457	137.84656990257	89
0	1480	139.426250792648	90
0	1503	140.473057146491	91
0	1526	141.888337090453	92
0	1549	143.224439358879	93
0	1572	144.945869467296	94
0	1574	146.25006815915	95
0	1576	147.325427229591	96
0	1599	148.750090235686	97
0	1601	149.774843314504	98
0	1624	150.782311631441	99
0	1626	152.070881589856	100
0	1628	153.945281509152	101
0	1630	155.05770883088	102
0	1649	156.270143190939	103
0	1672	157.618499940569	104
0	1674	159.533363031997	105
0	1694	160.582711978192	106
0	1717	161.992438182775	107
0	1740	163.120126827229	108
0	1763	165.019087920971	109
0	1786	166.539962715776	110
0	1788	168.107808720162	111
0	1790	169.728977971785	112
0	1813	171.227157536503	113
0	1836	173.164085416198	114
0	1859	174.921449556789	115
0	1882	176.159460831043	116
0	1905	177.386823282187	117
0	1928	179.278403769788	118
0	1930	180.600737309391	119
0	1953	181.917238052544	120
0	1973	182.99280461304	121
0	1996	184.622181321104	122
0	2015	185.850827870966	123
0	2017	187.095203944325	124
0	2040	188.219492838095	125
0	2063	189.455327061546	126
0	2086	190.528081139858	127
0	2109	192.255624753964	128
0	2111	193.708023718168	129
0	2134	194.908661391196	130
0	2141	196.874178028508	131
0	2151	198.784250641084	132
0	2171	200.182238799828	133
0	2173	202.066018241999	134
0	2196	203.458985017223	135
0	2198	205.074043041404	136
0	2221	206.626482099604	137
0	2244	208.521995037638	138
0	2246	210.484390109854	139
0	2248	211.594912406832	140
0	2250	213.225744217245	141
0	2273	215.22373822083	142
0	2292	216.460528253887	143
0	2294	217.7371779844	144
0	2296	219.243520904875	145
0	2319	220.593418580324	146
0	2342	221.653753925192	147
0	2344	223.042158047513	148
0	2367	224.528430132505	149
0	2369	226.307838864934	150
0	2392	228.157221826569	151
0	2415	229.825440054138	152
0	2417	231.59909909948	153
0	2436	233.246317070287	154
0	2438	235.019576202922	155
0	2461	236.587268947468	156
0	2463	238.35851013412	157
0	2465	239.63683894098	158
1	3	0.142870607559	0
1	3	0.142870607559	1
1	3	0.142870607559	2
1	3	0.142870607559	3
1	26	1.743101722685	4
1	26	1.743101722685	5
1	26	1.743101722685	6
1	26	1.743101722685	7
1	51	4.972766491194	8
1	51	4.972766491194	9
1	51	4.972766491194	10
1	51	4.972766491194	11
1	76	8.325550803508	12
1	76	8.325550803508	13
1	76	8.325550803508	14
1	76	8.325550803508	15
1	99	9.91763677752	16
1	99	9.91763677752	17
1	99	9.91763677752	18
1	99	9.91763677752	19
1	122	11.522705872749	20
1	122	11.522705872749	21
1	122	11.522705872749	22
1	122	11.522705872749	23
1	137	12.691704048791	24
1	137	12.691704048791	25
1	137	12.691704048791	26
1	137	12.691704048791	27
1	160	14.307179007884	28
1	160	14.307179007884	29
1	160	14.307179007884	30
1	160	14.307179007884	31
1	183	15.440552989194	32
1	183	15.440552989194	33
1	183	15.440552989194	34
1	183	15.440552989194	35
1	202	16.43458363104	36
1	202	16.43458363104	37
1	202	16.43458363104	38
1	202	16.43458363104	39
1	225	18.110488220209	40
1	225	18.110488220209	41
1	225	18.110488220209	42
1	225	18.110488220209	43
1	248	20.093337837544	44
1	248	20.093337837544	45
1	248	20.093337837544	46
1	248	20.093337837544	47
1	271	21.739839594021	48
1	271	21.739839594021	49
1	271	21.739839594021	50
1	271	21.739839594021	51
1	296	24.198613700416	52
1	296	24.198613700416	53
1	296	24.198613700416	54
1	296	24.198613700416	55
1	321	27.143465350194	56
1	321	27.143465350194	57
1	321	27.143465350194	58
1	321	27.143465350194	59
1	344	29.123598973335	60
1	344	29.123598973335	61
1	344	29.123598973335	62
1	344	29.123598973335	63
1	369	31.877913322953	64
1	369	31.877913322953	65
1	369	31.877913322953	66
1	369	31.877913322953	67
1	392	33.869780168195	68
1	392	33.869780168195	69
1	392	33.869780168195	70
1	392	33.869780168195	71
1	415	35.368962397869	72
1	415	35.368962397869	73
1	415	35.368962397869	74
1	415	35.368962397869	75
1	438	36.854036602207	76
1	438	36.854036602207	77
1	438	36.854036602207	78
1	438	36.854036602207	79
1	461	38.428336579775	80
1	461	38.428336579775	81
1	461	38.428336579775	82
1	461	38.428336579775	83
1	484	40.31215512917	84
1	484	40.31215512917	85
1	484	40.31215512917	86
1	484	40.31215512917	87
1	499	41.423735154429	88
1	499	41.423735154429	89
1	499	41.423735154429	90
1	499	41.423735154429	91
1	520	44.552052282509	92
1	520	44.552052282509	93
1	520	44.552052282509	94
1	520	44.552052282509	95
1	527	45.841537364091	96
1	527	45.841537364091	97
1	527	45.841537364091	98
1	527	45.841537364091	99
1	550	47.426915777844	100
1	550	47.426915777844	101
1	550	47.426915777844	102
1	550	47.426915777844	103
1	573	48.670813990862	104
1	573	48.670813990862	105
1	573	48.670813990862	106
1	573	48.670813990862	107
1	596	50.445311455794	108
1	596	50.445311455794	109
1	596	50.445311455794	110
1	596	50.445311455794	111
1	621	53.288994380222	112
1	621	53.288994380222	113
1	621	53.288994380222	114
1	621	53.288994380222	115
1	644	54.8193972996	116
1	644	54.8193972996	117
1	644	54.8193972996	118
1	644	54.8193972996	119
1	667	55.952624639807	120
1	667	55.952624639807	121
1	667	55.952624639807	122
1	667	55.952624639807	123
1	689	59.54226323144	124
1	689	59.54226323144	125
1	689	59.54226323144	126
1	689	59.54226323144	127
1	712	64.30013853191	128
1	712	64.30013853191	129
1	712	64.30013853191	130
1	712	64.30013853191	131
1	723	65.98692871635	132
1	723	65.98692871635	133
1	723	65.98692871635	134
1	723	65.98692871635	135
1	748	68.867214954409	136
1	748	68.867214954409	137
1	748	68.867214954409	138
1	748	68.867214954409	139
1	758	70.509471389733	140
1	758	70.509471389733	141
1	758	70.509471389733	142
1	758	70.509471389733	143
1	783	73.913898496172	144
1	783	73.913898496172	145
1	783	73.913898496172	146
1	783	73.913898496172	147
1	806	75.873773353385	148
1	806	75.873773353385	149
1	806	75.873773353385	150
1	806	75.873773353385	151
1	831	77.991538601843	152
1	831	77.991538601843	153
1	831	77.991538601843	154
1	831	77.991538601843	155
1	854	79.557621440671	156
1	854	79.557621440671	157
1	854	79.557621440671	158
1	854	79.557621440671	159
1	877	81.559758633497	160
1	877	81.559758633497	161
1	877	81.559758633497	162
1	877	81.559758633497	163
1	900	83.372432994526	164
1	900	83.372432994526	165
1	900	83.372432994526	166
1	900	83.372432994526	167
1	923	85.278551619714	168
1	923	85.278551619714	169
1	923	85.278551619714	170
1	923	85.278551619714	171
1	946	86.426874507965	172
1	946	86.426874507965	173
1	946	86.426874507965	174
1	946	86.426874507965	175
1	971	89.737807487973	176
1	971	89.737807487973	177
1	971	89.737807487973	178
1	971	89.737807487973	179
1	994	91.120216525945	180
1	994	91.120216525945	181
1	994	91.120216525945	182
1	994	91.120216525945	183
1	1017	92.57452763154	184
1	1017	92.57452763154	185
1	1017	92.57452763154	186
1	1017	92.57452763154	187
1	1040	94.479852373904	188
1	1040	94.479852373904	189
1	1040	94.479852373904	190
1	1040	94.479852373904	191
1	1059	96.35290952831	192
1	1059	96.35290952831	193
1	1059	96.35290952831	194
1	1059	96.35290952831	195
1	1084	98.865827047492	196
1	1084	98.865827047492	197
1	1084	98.865827047492	198
1	1084	98.865827047492	199
1	1107	100.508681511668	200
1	1107	100.508681511668	201
1	1107	100.508681511668	202
1	1107	100.508681511668	203
1	1130	102.520547812445	204
1	1130	102.520547812445	205
1	1130	102.520547812445	206
1	1130	102.520547812445	207
1	1155	105.91317909019	208
1	1155	105.91317909019	209
1	1155	105.91317909019	210
1	1155	105.91317909019	211
1	1178	107.508005222831	212
1	1178	107.508005222831	213
1	1178	107.508005222831	214
1	1178	107.508005222831	215
1	1203	110.518944171572	216
1	1203	110.518944171572	217
1	1203	110.518944171572	218
1	1203	110.518944171572	219
1	1226	112.180773181829	220
1	1226	112.180773181829	221
1	1226	112.180773181829	222
1	1226	112.180773181829	223
1	1249	114.158137251514	224
1	1249	114.158137251514	225
1	1249	114.158137251514	226
1	1249	114.158137251514	227
1	1266	116.665814593427	228
1	1266	116.665814593427	229
1	1266	116.665814593427	230
1	1266	116.665814593427	231
1	1286	118.095819660594	232
1	1286	118.095819660594	233
1	1286	118.095819660594	234
1	1286	118.095819660594	235
1	1309	120.096830635449	236
1	1309	120.096830635449	237
1	1309	120.096830635449	238
1	1309	120.096830635449	239
1	1336	125.142779361956	240
1	1336	125.142779361956	241
1	1336	125.142779361956	242
1	1336	125.142779361956	243
1	1359	126.489940308686	244
1	1359	126.489940308686	245
1	1359	126.489940308686	246
1	1359	126.489940308686	247
1	1382	128.308600055217	248
1	1382	128.308600055217	249
1	1382	128.308600055217	250
1	1382	128.308600055217	251
1	1413	135.304949273206	252
1	1413	135.304949273206	253
1	1413	135.304949273206	254
1	1413	135.304949273206	255
1	1436	136.332635032777	256
1	1436	136.332635032777	257
1	1436	136.332635032777	258
1	1436	136.332635032777	259
1	1459	137.862656096111	260
1	1459	137.862656096111	261
1	1459	137.862656096111	262
1	1459	137.862656096111	263
1	1482	139.471563206653	264
1	1482	139.471563206653	265
1	1482	139.471563206653	266
1	1482	139.471563206653	267
1	1505	140.488428983862	268
1	1505	140.488428983862	269
1	1505	140.488428983862	270
1	1505	140.488428983862	271
1	1528	141.919596396152	272
1	1528	141.919596396152	273
1	1528	141.919596396152	274
1	1528	141.919596396152	275
1	1551	143.24103438688	276
1	1551	143.24103438688	277
1	1551	143.24103438688	278
1	1551	143.24103438688	279
1	1578	147.336565836164	280
1	1578	147.336565836164	281
1	1578	147.336565836164	282
1	1578	147.336565836164	283
1	1603	149.811071569723	284
1	1603	149.811071569723	285
1	1603	149.811071569723	286
1	1603	149.811071569723	287
1	1632	155.069730400243	288
1	1632	155.069730400243	289
1	1632	155.069730400243	290
1	1632	155.069730400243	291
1	1651	156.281067066127	292
1	1651	156.281067066127	293
1	1651	156.281067066127	294
1	1651	156.281067066127	295
1	1676	159.546828702088	296
1	1676	159.546828702088	297
1	1676	159.546828702088	298
1	1676	159.546828702088	299
1	1696	160.597388218965	300
1	1696	160.597388218965	301
1	1696	160.597388218965	302
1	1696	160.597388218965	303
1	1719	162.012152862311	304
1	1719	162.012152862311	305
1	1719	162.012152862311	306
1	1719	162.012152862311	307
1	1742	163.132178855412	308
1	1742	163.132178855412	309
1	1742	163.132178855412	310
1	1742	163.132178855412	311
1	1765	165.033803878176	312
1	1765	165.033803878176	313
1	1765	165.033803878176	314
1	1765	165.033803878176	315
1	1792	169.759136146428	316
1	1792	169.759136146428	317
1	1792	169.759136146428	318
1	1792	169.759136146428	319
1	1815	171.247924122992	320
1	1815	171.247924122992	321
1	1815	171.247924122992	322
1	1815	171.247924122992	323
1	1838	173.177862553253	324
1	1838	173.177862553253	325
1	1838	173.177862553253	326
1	1838	173.177862553253	327
1	1861	174.941789615016	328
1	1861	174.941789615016	329
1	1861	174.941789615016	330
1	1861	174.941789615016	331
1	1884	176.170174201107	332
1	1884	176.170174201107	333
1	1884	176.170174201107	334
1	1884	176.170174201107	335
1	1907	177.408893993796	336
1	1907	177.408893993796	337
1	1907	177.408893993796	338
1	1907	177.408893993796	339
1	1932	180.617326394859	340
1	1932	180.617326394859	341
1	1932	180.617326394859	342
1	1932	180.617326394859	343
1	1955	181.94488967034	344
1	1955	181.94488967034	345
1	1955	181.94488967034	346
1	1955	181.94488967034	347
1	1975	183.00851084062	348
1	1975	183.00851084062	349
1	1975	183.00851084062	350
1	1975	183.00851084062	351
1	1998	184.643486721405	352
1	1998	184.643486721405	353
1	1998	184.643486721405	354
1	1998	184.643486721405	355
1	2019	187.107730848094	356
1	2019	187.107730848094	357
1	2019	187.107730848094	358
1	2019	187.107730848094	359
1	2042	188.239181842124	360
1	2042	188.239181842124	361
1	2042	188.239181842124	362
1	2042	188.239181842124	363
1	2065	189.475668773934	364
1	2065	189.475668773934	365
1	2065	189.475668773934	366
1	2065	189.475668773934	367
1	2088	190.538326861316	368
1	2088	190.538326861316	369
1	2088	190.538326861316	370
1	2088	190.538326861316	371
1	2113	193.744541624422	372
1	2113	193.744541624422	373
1	2113	193.744541624422	374
1	2113	193.744541624422	375
1	2136	194.938251532401	376
1	2136	194.938251532401	377
1	2136	194.938251532401	378
1	2136	194.938251532401	379
1	2143	196.884461837996	380
1	2143	196.884461837996	381
1	2143	196.884461837996	382
1	2143	196.884461837996	383
1	2153	198.808523854731	384
1	2153	198.808523854731	385
1	2153	198.808523854731	386
1	2153	198.808523854731	387
1	2175	202.101899578663	388
1	2175	202.101899578663	389
1	2175	202.101899578663	390
1	2175	202.101899578663	391
1	2200	205.087552098121	392
1	2200	205.087552098121	393
1	2200	205.087552098121	394
1	2200	205.087552098121	395
1	2223	206.638822670067	396
1	2223	206.638822670067	397
1	2223	206.638822670067	398
1	2223	206.638822670067	399
1	2252	213.279880768287	400
1	2252	213.279880768287	401
1	2252	213.279880768287	402
1	2252	213.279880768287	403
1	2275	215.239687282507	404
1	2275	215.239687282507	405
1	2275	215.239687282507	406
1	2275	215.239687282507	407
1	2298	219.265776634894	408
1	2298	219.265776634894	409
1	2298	219.265776634894	410
1	2298	219.265776634894	411
1	2321	220.626265271714	412
1	2321	220.626265271714	413
1	2321	220.626265271714	414
1	2321	220.626265271714	415
1	2346	223.061029043604	416
1	2346	223.061029043604	417
1	2346	223.061029043604	418
1	2346	223.061029043604	419
1	2371	226.336725194498	420
1	2371	226.336725194498	421
1	2371	226.336725194498	422
1	2371	226.336725194498	423
1	2394	228.170600592338	424
1	2394	228.170600592338	425
1	2394	228.170600592338	426
1	2394	228.170600592338	427
1	2419	231.613972454189	428
1	2419	231.613972454189	429
1	2419	231.613972454189	430
1	2419	231.613972454189	431
1	2440	235.070321115402	432
1	2440	235.070321115402	433
1	2440	235.070321115402	434
1	2440	235.070321115402	435
1	2467	239.658926809867	436
1	2467	239.658926809867	437
1	2467	239.658926809867	438
1	2467	239.658926809867	439
2	8	0.158381092426	0
2	8	0.158381092426	1
2	8	0.158381092426	2
2	32	1.754013332946	3
2	32	1.754013332946	4
2	32	1.754013332946	5
2	56	4.990144764112	6
2	56	4.990144764112	7
2	56	4.990144764112	8
2	82	8.345045749343	9
2	82	8.345045749343	10
2	82	8.345045749343	11
2	104	9.937695487572	12
2	104	9.937695487572	13
2	104	9.937695487572	14
2	142	12.708027414755	15
2	142	12.708027414755	16
2	142	12.708027414755	17
2	171	14.359625715219	18
2	171	14.359625715219	19
2	171	14.359625715219	20
2	189	15.453969530864	21
2	189	15.453969530864	22
2	189	15.453969530864	23
2	208	16.450262672575	24
2	208	16.450262672575	25
2	208	16.450262672575	26
2	230	18.125538407687	27
2	230	18.125538407687	28
2	230	18.125538407687	29
2	261	20.125378495328	30
2	261	20.125378495328	31
2	261	20.125378495328	32
2	279	21.784564948814	33
2	279	21.784564948814	34
2	279	21.784564948814	35
2	313	24.273037883519	36
2	313	24.273037883519	37
2	313	24.273037883519	38
2	334	27.180731220437	39
2	334	27.180731220437	40
2	334	27.180731220437	41
2	357	29.164385085835	42
2	357	29.164385085835	43
2	357	29.164385085835	44
2	375	31.896827108722	45
2	375	31.896827108722	46
2	375	31.896827108722	47
2	403	33.895415873998	48
2	403	33.895415873998	49
2	403	33.895415873998	50
2	428	35.425358923133	51
2	428	35.425358923133	52
2	428	35.425358923133	53
2	444	36.867774235145	54
2	444	36.867774235145	55
2	444	36.867774235145	56
2	466	38.438596557227	57
2	466	38.438596557227	58
2	466	38.438596557227	59
2	512	41.47997543154	60
2	512	41.47997543154	61
2	512	41.47997543154	62
2	532	45.854846462903	63
2	532	45.854846462903	64
2	532	45.854846462903	65
2	555	47.44357420271	66
2	555	47.44357420271	67
2	555	47.44357420271	68
2	590	48.712515193773	69
2	590	48.712515193773	70
2	590	48.712515193773	71
2	602	50.460611071587	72
2	602	50.460611071587	73
2	602	50.460611071587	74
2	627	53.299933125695	75
2	627	53.299933125695	76
2	627	53.299933125695	77
2	649	54.835531690496	78
2	649	54.835531690496	79
2	649	54.835531690496	80
2	672	55.96562789061	81
2	672	55.96562789061	82
2	672	55.96562789061	83
2	694	59.555927744358	84
2	694	59.555927744358	85
2	694	59.555927744358	86
2	717	64.315125455239	87
2	717	64.315125455239	88
2	717	64.315125455239	89
2	732	66.021068880655	90
2	732	66.021068880655	91
2	732	66.021068880655	92
2	763	70.520496908663	93
2	763	70.520496908663	94
2	763	70.520496908663	95
2	788	73.924237214724	96
2	788	73.924237214724	97
2	788	73.924237214724	98
2	811	75.884349282553	99
2	811	75.884349282553	100
2	811	75.884349282553	101
2	837	78.002765751916	102
2	837	78.002765751916	103
2	837	78.002765751916	104
2	859	79.568351957243	105
2	859	79.568351957243	106
2	859	79.568351957243	107
2	888	81.587399507419	108
2	888	81.587399507419	109
2	888	81.587399507419	110
2	911	83.406902078991	111
2	911	83.406902078991	112
2	911	83.406902078991	113
2	929	85.291267177631	114
2	929	85.291267177631	115
2	929	85.291267177631	116
2	951	86.437123788922	117
2	951	86.437123788922	118
2	951	86.437123788922	119
2	984	89.782809710255	120
2	984	89.782809710255	121
2	984	89.782809710255	122
2	1000	91.137266019159	123
2	1000	91.137266019159	124
2	1000	91.137266019159	125
2	1023	92.588812041828	126
2	1023	92.588812041828	127
2	1023	92.588812041828	128
2	1053	94.527418782891	129
2	1053	94.527418782891	130
2	1053	94.527418782891	131
2	1065	96.372644253746	132
2	1065	96.372644253746	133
2	1065	96.372644253746	134
2	1090	98.900453490186	135
2	1090	98.900453490186	136
2	1090	98.900453490186	137
2	1113	100.521266104155	138
2	1113	100.521266104155	139
2	1113	100.521266104155	140
2	1141	102.54196396768	141
2	1141	102.54196396768	142
2	1141	102.54196396768	143
2	1160	105.931875243798	144
2	1160	105.931875243798	145
2	1160	105.931875243798	146
2	1183	107.520082255693	147
2	1183	107.520082255693	148
2	1183	107.520082255693	149
2	1216	110.570678032659	150
2	1216	110.570678032659	151
2	1216	110.570678032659	152
2	1231	112.194979858553	153
2	1231	112.194979858553	154
2	1231	112.194979858553	155
2	1272	116.681493470358	156
2	1272	116.681493470358	157
2	1272	116.681493470358	158
2	1303	118.15670667137	159
2	1303	118.15670667137	160
2	1303	118.15670667137	161
2	1314	120.108061739998	162
2	1314	120.108061739998	163
2	1314	120.108061739998	164
2	1341	125.153001548476	165
2	1341	125.153001548476	166
2	1341	125.153001548476	167
2	1364	126.500244388624	168
2	1364	126.500244388624	169
2	1364	126.500244388624	170
2	1391	128.350374361432	171
2	1391	128.350374361432	172
2	1391	128.350374361432	173
2	1426	135.347251881413	174
2	1426	135.347251881413	175
2	1426	135.347251881413	176
2	1442	136.347550486365	177
2	1442	136.347550486365	178
2	1442	136.347550486365	179
2	1465	137.877196010578	180
2	1465	137.877196010578	181
2	1465	137.877196010578	182
2	1487	139.483530413539	183
2	1487	139.483530413539	184
2	1487	139.483530413539	185
2	1516	140.519417168148	186
2	1516	140.519417168148	187
2	1516	140.519417168148	188
2	1533	141.934776686723	189
2	1533	141.934776686723	190
2	1533	141.934776686723	191
2	1556	143.253335644562	192
2	1556	143.253335644562	193
2	1556	143.253335644562	194
2	1591	147.389187413913	195
2	1591	147.389187413913	196
2	1591	147.389187413913	197
2	1614	149.83764551493	198
2	1614	149.83764551493	199
2	1614	149.83764551493	200
2	1639	155.092684966882	201
2	1639	155.092684966882	202
2	1639	155.092684966882	203
2	1656	156.307307170565	204
2	1656	156.307307170565	205
2	1656	156.307307170565	206
2	1682	159.562929410001	207
2	1682	159.562929410001	208
2	1682	159.562929410001	209
2	1713	160.643474769134	210
2	1713	160.643474769134	211
2	1713	160.643474769134	212
2	1724	162.032118955103	213
2	1724	162.032118955103	214
2	1724	162.032118955103	215
2	1751	163.158764789281	216
2	1751	163.158764789281	217
2	1751	163.158764789281	218
2	1771	165.05534151581	219
2	1771	165.05534151581	220
2	1771	165.05534151581	221
2	1797	169.772868343712	222
2	1797	169.772868343712	223
2	1797	169.772868343712	224
2	1832	171.293143257045	225
2	1832	171.293143257045	226
2	1832	171.293143257045	227
2	1845	173.19617898278	228
2	1845	173.19617898278	229
2	1845	173.19617898278	230
2	1866	174.952840253345	231
2	1866	174.952840253345	232
2	1866	174.952840253345	233
2	1897	176.218124524444	234
2	1897	176.218124524444	235
2	1897	176.218124524444	236
2	1920	177.439977106615	237
2	1920	177.439977106615	238
2	1920	177.439977106615	239
2	1949	180.666072634253	240
2	1949	180.666072634253	241
2	1949	180.666072634253	242
2	1965	181.980364182849	243
2	1965	181.980364182849	244
2	1965	181.980364182849	245
2	1980	183.018633299008	246
2	1980	183.018633299008	247
2	1980	183.018633299008	248
2	2025	187.121121226371	249
2	2025	187.121121226371	250
2	2025	187.121121226371	251
2	2047	188.250619955672	252
2	2047	188.250619955672	253
2	2047	188.250619955672	254
2	2071	189.489976493065	255
2	2071	189.489976493065	256
2	2071	189.489976493065	257
2	2095	190.555112056801	258
2	2095	190.555112056801	259
2	2095	190.555112056801	260
2	2119	193.761107370847	261
2	2119	193.761107370847	262
2	2119	193.761107370847	263
2	2158	198.825877677155	264
2	2158	198.825877677155	265
2	2158	198.825877677155	266
2	2187	202.13038871846	267
2	2187	202.13038871846	268
2	2187	202.13038871846	269
2	2205	205.099338088552	270
2	2205	205.099338088552	271
2	2205	205.099338088552	272
2	2230	206.654645423379	273
2	2230	206.654645423379	274
2	2230	206.654645423379	275
2	2269	213.334366158395	276
2	2269	213.334366158395	277
2	2269	213.334366158395	278
2	2285	215.286889468621	279
2	2285	215.286889468621	280
2	2285	215.286889468621	281
2	2303	219.285827497122	282
2	2303	219.285827497122	283
2	2303	219.285827497122	284
2	2327	220.645318375132	285
2	2327	220.645318375132	286
2	2327	220.645318375132	287
2	2359	223.097923237488	288
2	2359	223.097923237488	289
2	2359	223.097923237488	290
2	2377	226.364272781395	291
2	2377	226.364272781395	292
2	2377	226.364272781395	293
2	2407	228.243275378366	294
2	2407	228.243275378366	295
2	2407	228.243275378366	296
2	2427	231.647099607643	297
2	2427	231.647099607643	298
2	2427	231.647099607643	299
2	2446	235.08773115159	300
2	2446	235.08773115159	301
2	2446	235.08773115159	302
2	2480	239.687717037399	303
2	2480	239.687717037399	304
2	2480	239.687717037399	305
3	9	0.160742618959	0
3	9	0.160742618959	1
3	9	0.160742618959	2
3	9	0.160742618959	3
3	42	1.794807677856	4
3	42	1.794807677856	5
3	42	1.794807677856	6
3	42	1.794807677856	7
3	61	5.011710695974	8
3	61	5.011710695974	9
3	61	5.011710695974	10
3	61	5.011710695974	11
3	81	8.341528264276	12
3	81	8.341528264276	13
3	81	8.341528264276	14
3	81	8.341528264276	15
3	109	9.95003850276	16
3	109	9.95003850276	17
3	109	9.95003850276	18
3	109	9.95003850276	19
3	128	11.536521431183	20
3	128	11.536521431183	21
3	128	11.536521431183	22
3	128	11.536521431183	23
3	147	12.739194363387	24
3	147	12.739194363387	25
3	147	12.739194363387	26
3	147	12.739194363387	27
3	165	14.342218125715	28
3	165	14.342218125715	29
3	165	14.342218125715	30
3	165	14.342218125715	31
3	192	15.463152327295	32
3	192	15.463152327295	33
3	192	15.463152327295	34
3	192	15.463152327295	35
3	207	16.447987098422	36
3	207	16.447987098422	37
3	207	16.447987098422	38
3	207	16.447987098422	39
3	234	18.137297442254	40
3	234	18.137297442254	41
3	234	18.137297442254	42
3	234	18.137297442254	43
3	254	20.109778884627	44
3	254	20.109778884627	45
3	254	20.109778884627	46
3	254	20.109778884627	47
3	287	21.846966252568	48
3	287	21.846966252568	49
3	287	21.846966252568	50
3	287	21.846966252568	51
3	301	24.227011028267	52
3	301	24.227011028267	53
3	301	24.227011028267	54
3	301	24.227011028267	55
3	327	27.166268692232	56
3	327	27.166268692232	57
3	327	27.166268692232	58
3	327	27.166268692232	59
3	352	29.154061517789	60
3	352	29.154061517789	61
3	352	29.154061517789	62
3	352	29.154061517789	63
3	374	31.895584119499	64
3	374	31.895584119499	65
3	374	31.895584119499	66
3	374	31.895584119499	67
3	397	33.880671711095	68
3	397	33.880671711095	69
3	397	33.880671711095	70
3	397	33.880671711095	71
3	423	35.401660798027	72
3	423	35.401660798027	73
3	423	35.401660798027	74
3	423	35.401660798027	75
3	443	36.864037155726	76
3	443	36.864037155726	77
3	443	36.864037155726	78
3	443	36.864037155726	79
3	468	38.445638856427	80
3	468	38.445638856427	81
3	468	38.445638856427	82
3	468	38.445638856427	83
3	492	40.352678905028	84
3	492	40.352678905028	85
3	492	40.352678905028	86
3	492	40.352678905028	87
3	507	41.461941513913	88
3	507	41.461941513913	89
3	507	41.461941513913	90
3	507	41.461941513913	91
3	537	45.866915651236	92
3	537	45.866915651236	93
3	537	45.866915651236	94
3	537	45.866915651236	95
3	557	47.4494881478	96
3	557	47.4494881478	97
3	557	47.4494881478	98
3	557	47.4494881478	99
3	579	48.687693425647	100
3	579	48.687693425647	101
3	579	48.687693425647	102
3	579	48.687693425647	103
3	608	50.470864399398	104
3	608	50.470864399398	105
3	608	50.470864399398	106
3	608	50.470864399398	107
3	626	53.299823002951	108
3	626	53.299823002951	109
3	626	53.299823002951	110
3	626	53.299823002951	111
3	650	54.83609032832	112
3	650	54.83609032832	113
3	650	54.83609032832	114
3	650	54.83609032832	115
3	677	55.977648767744	116
3	677	55.977648767744	117
3	677	55.977648767744	118
3	677	55.977648767744	119
3	695	59.559578684831	120
3	695	59.559578684831	121
3	695	59.559578684831	122
3	695	59.559578684831	123
3	731	66.020674506045	124
3	731	66.020674506045	125
3	731	66.020674506045	126
3	731	66.020674506045	127
3	764	70.527631575373	128
3	764	70.527631575373	129
3	764	70.527631575373	130
3	764	70.527631575373	131
3	793	73.942805787716	132
3	793	73.942805787716	133
3	793	73.942805787716	134
3	793	73.942805787716	135
3	813	75.884738766175	136
3	813	75.884738766175	137
3	813	75.884738766175	138
3	813	75.884738766175	139
3	836	78.001659694294	140
3	836	78.001659694294	141
3	836	78.001659694294	142
3	836	78.001659694294	143
3	864	79.583808051335	144
3	864	79.583808051335	145
3	864	79.583808051335	146
3	864	79.583808051335	147
3	882	81.574230032523	148
3	882	81.574230032523	149
3	882	81.574230032523	150
3	882	81.574230032523	151
3	905	83.385197721691	152
3	905	83.385197721691	153
3	905	83.385197721691	154
3	905	83.385197721691	155
3	935	85.302366210512	156
3	935	85.302366210512	157
3	935	85.302366210512	158
3	935	85.302366210512	159
3	953	86.441163626323	160
3	953	86.441163626323	161
3	953	86.441163626323	162
3	953	86.441163626323	163
3	979	89.770382255881	164
3	979	89.770382255881	165
3	979	89.770382255881	166
3	979	89.770382255881	167
3	1007	91.166457612194	168
3	1007	91.166457612194	169
3	1007	91.166457612194	170
3	1007	91.166457612194	171
3	1022	92.585632790306	172
3	1022	92.585632790306	173
3	1022	92.585632790306	174
3	1022	92.585632790306	175
3	1046	94.509252856003	176
3	1046	94.509252856003	177
3	1046	94.509252856003	178
3	1046	94.509252856003	179
3	1064	96.367104321545	180
3	1064	96.367104321545	181
3	1064	96.367104321545	182
3	1064	96.367104321545	183
3	1089	98.893773778632	184
3	1089	98.893773778632	185
3	1089	98.893773778632	186
3	1089	98.893773778632	187
3	1112	100.519634356497	188
3	1112	100.519634356497	189
3	1112	100.519634356497	190
3	1112	100.519634356497	191
3	1135	102.531836598905	192
3	1135	102.531836598905	193
3	1135	102.531836598905	194
3	1135	102.531836598905	195
3	1164	105.94596441909	196
3	1164	105.94596441909	197
3	1164	105.94596441909	198
3	1164	105.94596441909	199
3	1184	107.523710282712	200
3	1184	107.523710282712	201
3	1184	107.523710282712	202
3	1184	107.523710282712	203
3	1211	110.553452010284	204
3	1211	110.553452010284	205
3	1211	110.553452010284	206
3	1211	110.553452010284	207
3	1239	112.210134334053	208
3	1239	112.210134334053	209
3	1239	112.210134334053	210
3	1239	112.210134334053	211
3	1257	114.182600327236	212
3	1257	114.182600327236	213
3	1257	114.182600327236	214
3	1257	114.182600327236	215
3	1271	116.677791911106	216
3	1271	116.677791911106	217
3	1271	116.677791911106	218
3	1271	116.677791911106	219
3	1291	118.108196319305	220
3	1291	118.108196319305	221
3	1291	118.108196319305	222
3	1291	118.108196319305	223
3	1316	120.11319114016	224
3	1316	120.11319114016	225
3	1316	120.11319114016	226
3	1316	120.11319114016	227
3	1343	125.157582280094	228
3	1343	125.157582280094	229
3	1343	125.157582280094	230
3	1343	125.157582280094	231
3	1365	126.503812283358	232
3	1365	126.503812283358	233
3	1365	126.503812283358	234
3	1365	126.503812283358	235
3	1390	128.346281055794	236
3	1390	128.346281055794	237
3	1390	128.346281055794	238
3	1390	128.346281055794	239
3	1418	135.315627831986	240
3	1418	135.315627831986	241
3	1418	135.315627831986	242
3	1418	135.315627831986	243
3	1443	136.348114157154	244
3	1443	136.348114157154	245
3	1443	136.348114157154	246
3	1443	136.348114157154	247
3	1466	137.877378383597	248
3	1466	137.877378383597	249
3	1466	137.877378383597	250
3	1466	137.877378383597	251
3	1494	139.510433151277	252
3	1494	139.510433151277	253
3	1494	139.510433151277	254
3	1494	139.510433151277	255
3	1510	140.501537904493	256
3	1510	140.501537904493	257
3	1510	140.501537904493	258
3	1510	140.501537904493	259
3	1538	141.952632464918	260
3	1538	141.952632464918	261
3	1538	141.952632464918	262
3	1538	141.952632464918	263
3	1561	143.264833096645	264
3	1561	143.264833096645	265
3	1561	143.264833096645	266
3	1561	143.264833096645	267
3	1583	147.352222065374	268
3	1583	147.352222065374	269
3	1583	147.352222065374	270
3	1583	147.352222065374	271
3	1608	149.825810185513	272
3	1608	149.825810185513	273
3	1608	149.825810185513	274
3	1608	149.825810185513	275
3	1637	155.084313145874	276
3	1637	155.084313145874	277
3	1637	155.084313145874	278
3	1637	155.084313145874	279
3	1657	156.310610153844	280
3	1657	156.310610153844	281
3	1657	156.310610153844	282
3	1657	156.310610153844	283
3	1681	159.557156757635	284
3	1681	159.557156757635	285
3	1681	159.557156757635	286
3	1681	159.557156757635	287
3	1701	160.611807550854	288
3	1701	160.611807550854	289
3	1701	160.611807550854	290
3	1701	160.611807550854	291
3	1731	162.045585613584	292
3	1731	162.045585613584	293
3	1731	162.045585613584	294
3	1731	162.045585613584	295
3	1748	163.151031023859	296
3	1748	163.151031023859	297
3	1748	163.151031023859	298
3	1748	163.151031023859	299
3	1777	165.07818145233	300
3	1777	165.07818145233	301
3	1777	165.07818145233	302
3	1777	165.07818145233	303
3	1801	169.783540062478	304
3	1801	169.783540062478	305
3	1801	169.783540062478	306
3	1801	169.783540062478	307
3	1820	171.259155956715	308
3	1820	171.259155956715	309
3	1820	171.259155956715	310
3	1820	171.259155956715	311
3	1844	173.196067228932	312
3	1844	173.196067228932	313
3	1844	173.196067228932	314
3	1844	173.196067228932	315
3	1867	174.955840347308	316
3	1867	174.955840347308	317
3	1867	174.955840347308	318
3	1867	174.955840347308	319
3	1890	176.19330706466	320
3	1890	176.19330706466	321
3	1890	176.19330706466	322
3	1890	176.19330706466	323
3	1912	177.423132917199	324
3	1912	177.423132917199	325
3	1912	177.423132917199	326
3	1912	177.423132917199	327
3	1937	180.628077406568	328
3	1937	180.628077406568	329
3	1937	180.628077406568	330
3	1937	180.628077406568	331
3	1960	181.963831670242	332
3	1960	181.963831670242	333
3	1960	181.963831670242	334
3	1960	181.963831670242	335
3	1984	183.033261023766	336
3	1984	183.033261023766	337
3	1984	183.033261023766	338
3	1984	183.033261023766	339
3	2006	184.678778035805	340
3	2006	184.678778035805	341
3	2006	184.678778035805	342
3	2006	184.678778035805	343
3	2024	187.118867828378	344
3	2024	187.118867828378	345
3	2024	187.118867828378	346
3	2024	187.118867828378	347
3	2048	188.251780661645	348
3	2048	188.251780661645	349
3	2048	188.251780661645	350
3	2048	188.251780661645	351
3	2072	189.498376635128	352
3	2072	189.498376635128	353
3	2072	189.498376635128	354
3	2072	189.498376635128	355
3	2093	190.550552417686	356
3	2093	190.550552417686	357
3	2093	190.550552417686	358
3	2093	190.550552417686	359
3	2125	193.771160612831	360
3	2125	193.771160612831	361
3	2125	193.771160612831	362
3	2125	193.771160612831	363
3	2159	198.828725455345	364
3	2159	198.828725455345	365
3	2159	198.828725455345	366
3	2159	198.828725455345	367
3	2180	202.119335083536	368
3	2180	202.119335083536	369
3	2180	202.119335083536	370
3	2180	202.119335083536	371
3	2209	205.114024458151	372
3	2209	205.114024458151	373
3	2209	205.114024458151	374
3	2209	205.114024458151	375
3	2228	206.650610160601	376
3	2228	206.650610160601	377
3	2228	206.650610160601	378
3	2228	206.650610160601	379
3	2257	213.293102471955	380
3	2257	213.293102471955	381
3	2257	213.293102471955	382
3	2257	213.293102471955	383
3	2280	215.26537799098	384
3	2280	215.26537799098	385
3	2280	215.26537799098	386
3	2280	215.26537799098	387
3	2307	219.298956935659	388
3	2307	219.298956935659	389
3	2307	219.298956935659	390
3	2307	219.298956935659	391
3	2337	220.69831262657	392
3	2337	220.69831262657	393
3	2337	220.69831262657	394
3	2337	220.69831262657	395
3	2352	223.083201838698	396
3	2352	223.083201838698	397
3	2352	223.083201838698	398
3	2352	223.083201838698	399
3	2384	226.386354919451	400
3	2384	226.386354919451	401
3	2384	226.386354919451	402
3	2384	226.386354919451	403
3	2402	228.222691080282	404
3	2402	228.222691080282	405
3	2402	228.222691080282	406
3	2402	228.222691080282	407
3	2431	231.664080261794	408
3	2431	231.664080261794	409
3	2431	231.664080261794	410
3	2431	231.664080261794	411
3	2445	235.080328033297	412
3	2445	235.080328033297	413
3	2445	235.080328033297	414
3	2445	235.080328033297	415
3	2473	239.674458122078	416
3	2473	239.674458122078	417
3	2473	239.674458122078	418
3	2473	239.674458122078	419
4	10	0.163252200566	0
4	10	0.163252200566	1
4	31	1.753305978569	2
4	31	1.753305978569	3
4	69	5.023163476247	4
4	69	5.023163476247	5
4	91	8.358814314125	6
4	91	8.358814314125	7
4	113	9.959566243941	8
4	113	9.959566243941	9
4	127	11.534894678714	10
4	127	11.534894678714	11
4	148	12.739323321636	12
4	148	12.739323321636	13
4	172	14.360579101035	14
4	172	14.360579101035	15
4	188	15.45257649358	16
4	188	15.45257649358	17
4	216	16.463030536488	18
4	216	16.463030536488	19
4	235	18.14178321417	20
4	235	18.14178321417	21
4	253	20.106927109703	22
4	253	20.106927109703	23
4	276	21.753710894942	24
4	276	21.753710894942	25
4	302	24.228872788587	26
4	302	24.228872788587	27
4	326	27.158014468642	28
4	326	27.158014468642	29
4	349	29.139824946775	30
4	349	29.139824946775	31
4	376	31.901011176667	32
4	376	31.901011176667	33
4	402	33.894408409039	34
4	402	33.894408409039	35
4	420	35.381407308089	36
4	420	35.381407308089	37
4	445	36.869578310497	38
4	445	36.869578310497	39
4	467	38.440661829959	40
4	467	38.440661829959	41
4	489	40.334345122622	42
4	489	40.334345122622	43
4	504	41.447478584573	44
4	504	41.447478584573	45
4	533	45.860366169541	46
4	533	45.860366169541	47
4	556	47.449244582474	48
4	556	47.449244582474	49
4	578	48.683953969843	50
4	578	48.683953969843	51
4	601	50.459762949188	52
4	601	50.459762949188	53
4	635	53.310143254441	54
4	635	53.310143254441	55
4	651	54.836833131518	56
4	651	54.836833131518	57
4	696	59.560879906358	58
4	696	59.560879906358	59
4	728	65.997794886294	60
4	728	65.997794886294	61
4	753	68.880900783805	62
4	753	68.880900783805	63
4	765	70.529191498644	64
4	765	70.529191498644	65
4	801	73.955836114899	66
4	801	73.955836114899	67
4	812	75.884678428086	68
4	812	75.884678428086	69
4	838	78.011174528806	70
4	838	78.011174528806	71
4	872	79.599326072551	72
4	872	79.599326072551	73
4	889	81.595656894952	74
4	889	81.595656894952	75
4	918	83.425347404413	76
4	918	83.425347404413	77
4	928	85.290437266957	78
4	928	85.290437266957	79
4	952	86.438485933753	80
4	952	86.438485933753	81
4	976	89.748002380903	82
4	976	89.748002380903	83
4	999	91.133932683493	84
4	999	91.133932683493	85
4	1028	92.598002119777	86
4	1028	92.598002119777	87
4	1045	94.502242738978	88
4	1045	94.502242738978	89
4	1071	96.37945838021	90
4	1071	96.37945838021	91
4	1095	98.909583865187	92
4	1095	98.909583865187	93
4	1114	100.523962951575	94
4	1114	100.523962951575	95
4	1136	102.533932223773	96
4	1136	102.533932223773	97
4	1173	105.967886941511	98
4	1173	105.967886941511	99
4	1188	107.530565178819	100
4	1188	107.530565178819	101
4	1208	110.538289975735	102
4	1208	110.538289975735	103
4	1232	112.19971424071	104
4	1232	112.19971424071	105
4	1254	114.171314944928	106
4	1254	114.171314944928	107
4	1292	118.11736940593	108
4	1292	118.11736940593	109
4	1315	120.112938177198	110
4	1315	120.112938177198	111
4	1342	125.157475442277	112
4	1342	125.157475442277	113
4	1369	126.513305992859	114
4	1369	126.513305992859	115
4	1387	128.33451207785	116
4	1387	128.33451207785	117
4	1419	135.319561530982	118
4	1419	135.319561530982	119
4	1441	136.344383252777	120
4	1441	136.344383252777	121
4	1464	137.875679377491	122
4	1464	137.875679377491	123
4	1488	139.491053070121	124
4	1488	139.491053070121	125
4	1515	140.511551747619	126
4	1515	140.511551747619	127
4	1537	141.952167267568	128
4	1537	141.952167267568	129
4	1557	143.258701640701	130
4	1557	143.258701640701	131
4	1584	147.355639965363	132
4	1584	147.355639965363	133
4	1609	149.833417108421	134
4	1609	149.833417108421	135
4	1638	155.091064282846	136
4	1638	155.091064282846	137
4	1666	156.333625574929	138
4	1666	156.333625574929	139
4	1706	160.627969130742	140
4	1706	160.627969130742	141
4	1725	162.033986257545	142
4	1725	162.033986257545	143
4	1747	163.144461321644	144
4	1747	163.144461321644	145
4	1770	165.054867408826	146
4	1770	165.054867408826	147
4	1803	169.791083816916	148
4	1803	169.791083816916	149
4	1826	171.271716276499	150
4	1826	171.271716276499	151
4	1843	173.188387814157	152
4	1843	173.188387814157	153
4	1868	174.958244412726	154
4	1868	174.958244412726	155
4	1889	176.187180911529	156
4	1889	176.187180911529	157
4	1913	177.429829187567	158
4	1913	177.429829187567	159
4	1943	180.648460377702	160
4	1943	180.648460377702	161
4	1990	183.055152704511	162
4	1990	183.055152704511	163
4	2003	184.659946040941	164
4	2003	184.659946040941	165
4	2026	187.123831851116	166
4	2026	187.123831851116	167
4	2056	188.275929436063	168
4	2056	188.275929436063	169
4	2070	189.488604197967	170
4	2070	189.488604197967	171
4	2094	190.552560165377	172
4	2094	190.552560165377	173
4	2118	193.755503739364	174
4	2118	193.755503739364	175
4	2148	196.906222435268	176
4	2148	196.906222435268	177
4	2181	202.127357640752	178
4	2181	202.127357640752	179
4	2210	205.118494772596	180
4	2210	205.118494772596	181
4	2229	206.65187163001	182
4	2229	206.65187163001	183
4	2258	213.298632084143	184
4	2258	213.298632084143	185
4	2286	215.290840469416	186
4	2286	215.290840469416	187
4	2316	219.324499851853	188
4	2316	219.324499851853	189
4	2326	220.640647548617	190
4	2326	220.640647548617	191
4	2351	223.080234881835	192
4	2351	223.080234881835	193
4	2376	226.359418527829	194
4	2376	226.359418527829	195
4	2399	228.184186058184	196
4	2399	228.184186058184	197
4	2424	231.624066648255	198
4	2424	231.624066648255	199
4	2458	235.132567904481	200
4	2458	235.132567904481	201
4	2472	239.67383980302	202
4	2472	239.67383980302	203
5	20	0.190616336646	0
5	20	0.190616336646	1
5	20	0.190616336646	2
5	38	1.784422255105	3
5	38	1.784422255105	4
5	38	1.784422255105	5
5	60	5.002206796932	6
5	60	5.002206796932	7
5	60	5.002206796932	8
5	90	8.356920010003	9
5	90	8.356920010003	10
5	90	8.356920010003	11
5	108	9.949454623026	12
5	108	9.949454623026	13
5	108	9.949454623026	14
5	146	12.731469867477	15
5	146	12.731469867477	16
5	146	12.731469867477	17
5	170	14.355302274116	18
5	170	14.355302274116	19
5	170	14.355302274116	20
5	219	16.480624434181	21
5	219	16.480624434181	22
5	219	16.480624434181	23
5	242	18.156886712187	24
5	242	18.156886712187	25
5	242	18.156886712187	26
5	262	20.129402635185	27
5	262	20.129402635185	28
5	262	20.129402635185	29
5	283	21.795588154963	30
5	283	21.795588154963	31
5	283	21.795588154963	32
5	309	24.246570692506	33
5	309	24.246570692506	34
5	309	24.246570692506	35
5	338	27.192614170189	36
5	338	27.192614170189	37
5	338	27.192614170189	38
5	361	29.176249485822	39
5	361	29.176249485822	40
5	361	29.176249485822	41
5	384	31.910662770726	42
5	384	31.910662770726	43
5	384	31.910662770726	44
5	404	33.902590292132	45
5	404	33.902590292132	46
5	404	33.902590292132	47
5	432	35.439215800073	48
5	432	35.439215800073	49
5	432	35.439215800073	50
5	455	36.884379265942	51
5	455	36.884379265942	52
5	455	36.884379265942	53
5	474	38.453283321987	54
5	474	38.453283321987	55
5	474	38.453283321987	56
5	540	45.871494540399	57
5	540	45.871494540399	58
5	540	45.871494540399	59
5	567	47.47218851914	60
5	567	47.47218851914	61
5	567	47.47218851914	62
5	586	48.7012293914	63
5	586	48.7012293914	64
5	586	48.7012293914	65
5	613	50.485537393229	66
5	613	50.485537393229	67
5	613	50.485537393229	68
5	636	53.315279580099	69
5	636	53.315279580099	70
5	636	53.315279580099	71
5	661	54.864680113072	72
5	661	54.864680113072	73
5	661	54.864680113072	74
5	676	55.975725244703	75
5	676	55.975725244703	76
5	676	55.975725244703	77
5	740	66.043096018493	78
5	740	66.043096018493	79
5	740	66.043096018493	80
5	769	70.532212294937	81
5	769	70.532212294937	82
5	769	70.532212294937	83
5	792	73.938648762831	84
5	792	73.938648762831	85
5	792	73.938648762831	86
5	823	75.912644704112	87
5	823	75.912644704112	88
5	823	75.912644704112	89
5	848	78.058062494253	90
5	848	78.058062494253	91
5	848	78.058062494253	92
5	863	79.581176424363	93
5	863	79.581176424363	94
5	863	79.581176424363	95
5	887	81.586877855256	96
5	887	81.586877855256	97
5	887	81.586877855256	98
5	910	83.397855887181	99
5	910	83.397855887181	100
5	910	83.397855887181	101
5	940	85.319542440309	102
5	940	85.319542440309	103
5	940	85.319542440309	104
5	963	86.459430977432	105
5	963	86.459430977432	106
5	963	86.459430977432	107
5	985	89.78337578591	108
5	985	89.78337578591	109
5	985	89.78337578591	110
5	1006	91.157091302586	111
5	1006	91.157091302586	112
5	1006	91.157091302586	113
5	1032	92.605371576221	114
5	1032	92.605371576221	115
5	1032	92.605371576221	116
5	1070	96.378333947214	117
5	1070	96.378333947214	118
5	1070	96.378333947214	119
5	1099	98.915328525919	120
5	1099	98.915328525919	121
5	1099	98.915328525919	122
5	1124	100.551434560969	123
5	1124	100.551434560969	124
5	1124	100.551434560969	125
5	1142	102.54307069362	126
5	1142	102.54307069362	127
5	1142	102.54307069362	128
5	1165	105.951697625642	129
5	1165	105.951697625642	130
5	1165	105.951697625642	131
5	1193	107.533947197513	132
5	1193	107.533947197513	133
5	1193	107.533947197513	134
5	1220	110.586775654388	135
5	1220	110.586775654388	136
5	1220	110.586775654388	137
5	1236	112.205362746531	138
5	1236	112.205362746531	139
5	1236	112.205362746531	140
5	1280	116.696700449125	141
5	1280	116.696700449125	142
5	1280	116.696700449125	143
5	1299	118.138005872266	144
5	1299	118.138005872266	145
5	1299	118.138005872266	146
5	1326	120.123573119481	147
5	1326	120.123573119481	148
5	1326	120.123573119481	149
5	1353	125.180541058259	150
5	1353	125.180541058259	151
5	1353	125.180541058259	152
5	1374	126.51956625603	153
5	1374	126.51956625603	154
5	1374	126.51956625603	155
5	1399	128.373122875957	156
5	1399	128.373122875957	157
5	1399	128.373122875957	158
5	1427	135.34984119845	159
5	1427	135.34984119845	160
5	1427	135.34984119845	161
5	1453	136.378037866301	162
5	1453	136.378037866301	163
5	1453	136.378037866301	164
5	1476	137.890444178624	165
5	1476	137.890444178624	166
5	1476	137.890444178624	167
5	1495	139.514892352802	168
5	1495	139.514892352802	169
5	1495	139.514892352802	170
5	1522	140.535551348809	171
5	1522	140.535551348809	172
5	1522	140.535551348809	173
5	1539	141.95634367962	174
5	1539	141.95634367962	175
5	1539	141.95634367962	176
5	1564	143.268902671203	177
5	1564	143.268902671203	178
5	1564	143.268902671203	179
5	1595	147.399470809115	180
5	1595	147.399470809115	181
5	1595	147.399470809115	182
5	1615	149.840147847408	183
5	1615	149.840147847408	184
5	1615	149.840147847408	185
5	1665	156.330299163889	186
5	1665	156.330299163889	187
5	1665	156.330299163889	188
5	1690	159.584157996928	189
5	1690	159.584157996928	190
5	1690	159.584157996928	191
5	1707	160.633331661048	192
5	1707	160.633331661048	193
5	1707	160.633331661048	194
5	1732	162.0485996587	195
5	1732	162.0485996587	196
5	1732	162.0485996587	197
5	1756	163.16457301	198
5	1756	163.16457301	199
5	1756	163.16457301	200
5	1778	165.085436601977	201
5	1778	165.085436601977	202
5	1778	165.085436601977	203
5	1802	169.789092323955	204
5	1802	169.789092323955	205
5	1802	169.789092323955	206
5	1825	171.270070343195	207
5	1825	171.270070343195	208
5	1825	171.270070343195	209
5	1855	173.219221253858	210
5	1855	173.219221253858	211
5	1855	173.219221253858	212
5	1876	174.966381141346	213
5	1876	174.966381141346	214
5	1876	174.966381141346	215
5	1898	176.219130471163	216
5	1898	176.219130471163	217
5	1898	176.219130471163	218
5	1921	177.442398286304	219
5	1921	177.442398286304	220
5	1921	177.442398286304	221
5	1942	180.640019316356	222
5	1942	180.640019316356	223
5	1942	180.640019316356	224
5	1966	181.98627929103	225
5	1966	181.98627929103	226
5	1966	181.98627929103	227
5	1989	183.045880019672	228
5	1989	183.045880019672	229
5	1989	183.045880019672	230
5	2011	184.709940874285	231
5	2011	184.709940874285	232
5	2011	184.709940874285	233
5	2036	187.134171575027	234
5	2036	187.134171575027	235
5	2036	187.134171575027	236
5	2057	188.281517694549	237
5	2057	188.281517694549	238
5	2057	188.281517694549	239
5	2078	189.507437943035	240
5	2078	189.507437943035	241
5	2078	189.507437943035	242
5	2100	190.561237424504	243
5	2100	190.561237424504	244
5	2100	190.561237424504	245
5	2126	193.771221571712	246
5	2126	193.771221571712	247
5	2126	193.771221571712	248
5	2167	198.842776962873	249
5	2167	198.842776962873	250
5	2167	198.842776962873	251
5	2186	202.129975518717	252
5	2186	202.129975518717	253
5	2186	202.129975518717	254
5	2217	205.130864116748	255
5	2217	205.130864116748	256
5	2217	205.130864116748	257
5	2235	206.660968091185	258
5	2235	206.660968091185	259
5	2235	206.660968091185	260
5	2263	213.305320308448	261
5	2263	213.305320308448	262
5	2263	213.305320308448	263
5	2312	219.31193466431	264
5	2312	219.31193466431	265
5	2312	219.31193466431	266
5	2333	220.669835560367	267
5	2333	220.669835560367	268
5	2333	220.669835560367	269
5	2363	223.123881247059	270
5	2363	223.123881247059	271
5	2363	223.123881247059	272
5	2383	226.377507078149	273
5	2383	226.377507078149	274
5	2383	226.377507078149	275
5	2408	228.252374424684	276
5	2408	228.252374424684	277
5	2408	228.252374424684	278
5	2454	235.098726010011	279
5	2454	235.098726010011	280
5	2454	235.098726010011	281
5	2484	239.731268282028	282
5	2484	239.731268282028	283
5	2484	239.731268282028	284
6	23	0.200616336646	0
6	41	1.794422255105	1
6	64	5.012206796932	2
6	112	9.959454623026	3
6	151	12.741469867477	4
6	175	14.365302274116	5
6	222	16.490624434181	6
6	268	20.139402635185	7
6	286	21.805588154963	8
6	312	24.256570692506	9
6	341	27.202614170189	10
6	364	29.186249485822	11
6	389	31.920662770726	12
6	412	33.912590292132	13
6	435	35.449215800073	14
6	458	36.894379265942	15
6	481	38.463283321987	16
6	547	45.881494540399	17
6	616	50.495537393229	18
6	641	53.325279580099	19
6	680	55.985725244703	20
6	743	66.053096018493	21
6	778	70.542212294937	22
6	796	73.948648762831	23
6	826	75.922644704112	24
6	851	78.068062494253	25
6	867	79.591176424363	26
6	892	81.596877855256	27
6	914	83.407855887181	28
6	966	86.469430977432	29
6	991	89.79337578591	30
6	1010	91.167091302586	31
6	1037	92.615371576221	32
6	1077	96.388333947214	33
6	1104	98.925328525919	34
6	1127	100.561434560969	35
6	1150	102.55307069362	36
6	1172	105.961697625642	37
6	1198	107.543947197513	38
6	1223	110.596775654388	39
6	1242	112.215362746531	40
6	1283	116.706700449125	41
6	1302	118.148005872266	42
6	1379	126.52956625603	43
6	1433	135.35984119845	44
6	1456	136.388037866301	45
6	1502	139.524892352802	46
6	1525	140.545551348809	47
6	1548	141.96634367962	48
6	1571	143.278902671203	49
6	1598	147.409470809115	50
6	1623	149.850147847408	51
6	1693	159.594157996928	52
6	1712	160.643331661048	53
6	1739	162.0585996587	54
6	1762	163.17457301	55
6	1785	165.095436601977	56
6	1810	169.799092323955	57
6	1829	171.280070343195	58
6	1881	174.976381141346	59
6	1927	177.452398286304	60
6	1946	180.650019316356	61
6	1972	181.99627929103	62
6	2039	187.144171575027	63
6	2085	189.517437943035	64
6	2108	190.571237424504	65
6	2133	193.781221571712	66
6	2170	198.852776962873	67
6	2243	206.670968091185	68
6	2268	213.315320308448	69
6	2336	220.679835560367	70
6	2366	223.133881247059	71
6	2414	228.262374424684	72
6	2457	235.108726010011	73

