version 2
run General-0-20230921-22:34:23-7056
attr configname General
attr datetime 20230921-22:34:23
attr experiment General
attr inifile omnetpp.ini
attr iterationvars ""
attr iterationvarsf ""
attr measurement ""
attr network Network3
attr processid 7056
attr repetition 0
attr replication #0
attr resultdir results
attr runnumber 0
attr seedset 0
param Network3.node[*].transmissionTime "uniform(1s, 2s)"
param Network3.node[*].delayTime "uniform(0.01s, 0.2s)"
param Network3.node[*].processingTime exponential(0.01s)
param Network3.node[0].lossProbability 0
param Network3.node[1].lossProbability 0.1
param Network3.node[2].lossProbability 0.1
param Network3.node[3].lossProbability "0.1 / 2"
param Network3.node[4].lossProbability "0.1 / 2"
param Network3.node[6].lossProbability "0.1 * 2"
param Network3.node[7].lossProbability "0.1 * 2"
param Network3.node[5].lossProbability "0.1 * 3"

vector 0 Network3.node[0] txVector ETV
vector 1 Network3.node[1] txVector ETV
vector 2 Network3.node[2] txVector ETV
vector 3 Network3.node[4] txVector ETV
vector 4 Network3.node[3] txVector ETV
vector 5 Network3.node[6] txVector ETV
vector 6 Network3.node[5] rxVector ETV
vector 7 Network3.node[7] txVector ETV
0	1	0.114274565438	0
0	1	0.114274565438	1
0	26	1.707119181827	2
0	26	1.707119181827	3
0	51	3.632715815055	4
0	51	3.632715815055	5
0	76	5.214735606295	6
0	76	5.214735606295	7
0	101	7.158483681577	8
0	101	7.158483681577	9
0	126	8.19690910711	10
0	126	8.19690910711	11
0	151	9.335092056618	12
0	151	9.335092056618	13
0	176	10.776802978088	14
0	176	10.776802978088	15
0	182	12.352749473258	16
0	182	12.352749473258	17
0	204	14.020159849507	18
0	204	14.020159849507	19
0	229	15.755353869946	20
0	229	15.755353869946	21
0	254	17.167174011777	22
0	254	17.167174011777	23
0	276	18.468748828006	24
0	276	18.468748828006	25
0	301	20.120852102368	26
0	301	20.120852102368	27
0	319	22.025499846629	28
0	319	22.025499846629	29
0	344	24.008074803353	30
0	344	24.008074803353	31
0	366	25.208071328775	32
0	366	25.208071328775	33
0	391	26.445964143687	34
0	391	26.445964143687	35
0	416	28.416200828581	36
0	416	28.416200828581	37
0	441	29.952780037262	38
0	441	29.952780037262	39
0	466	30.952835387625	40
0	466	30.952835387625	41
0	491	31.978498101076	42
0	491	31.978498101076	43
0	516	33.441648297552	44
0	516	33.441648297552	45
0	541	35.40358468106	46
0	541	35.40358468106	47
0	566	37.191126834443	48
0	566	37.191126834443	49
0	591	38.20436369123	50
0	591	38.20436369123	51
0	616	40.185063364758	52
0	616	40.185063364758	53
0	619	41.910657732823	54
0	619	41.910657732823	55
0	644	43.444123409065	56
0	644	43.444123409065	57
0	669	44.499497725936	58
0	669	44.499497725936	59
0	691	46.346773042651	60
0	691	46.346773042651	61
0	716	47.816271348	62
0	716	47.816271348	63
0	741	49.208947029273	64
0	741	49.208947029273	65
0	766	50.789144137018	66
0	766	50.789144137018	67
0	791	52.364895294263	68
0	791	52.364895294263	69
0	816	53.484666642575	70
0	816	53.484666642575	71
0	841	55.099131349316	72
0	841	55.099131349316	73
0	863	56.473454544395	74
0	863	56.473454544395	75
0	888	57.854183789184	76
0	888	57.854183789184	77
0	913	59.086810779832	78
0	913	59.086810779832	79
0	938	60.472048203069	80
0	938	60.472048203069	81
0	963	61.70979002661	82
0	963	61.70979002661	83
0	988	63.38169704548	84
0	988	63.38169704548	85
0	1010	64.933775315601	86
0	1010	64.933775315601	87
0	1035	66.857934080138	88
0	1035	66.857934080138	89
0	1060	68.496961464713	90
0	1060	68.496961464713	91
0	1085	69.521274663116	92
0	1085	69.521274663116	93
0	1110	71.493357168119	94
0	1110	71.493357168119	95
0	1135	72.584242897881	96
0	1135	72.584242897881	97
0	1157	74.264940134091	98
0	1157	74.264940134091	99
0	1182	75.502983654691	100
0	1182	75.502983654691	101
0	1207	77.40104601563	102
0	1207	77.40104601563	103
0	1232	79.326748164213	104
0	1232	79.326748164213	105
0	1257	80.91777506129	106
0	1257	80.91777506129	107
0	1282	81.999832806952	108
0	1282	81.999832806952	109
0	1307	83.935664886219	110
0	1307	83.935664886219	111
0	1332	85.920598191518	112
0	1332	85.920598191518	113
0	1357	87.591981675086	114
0	1357	87.591981675086	115
0	1382	89.425297485275	116
0	1382	89.425297485275	117
0	1407	90.454487725936	118
0	1407	90.454487725936	119
0	1429	91.729062775925	120
0	1429	91.729062775925	121
0	1450	93.06125366416	122
0	1450	93.06125366416	123
0	1475	94.939626157127	124
0	1475	94.939626157127	125
0	1500	96.791479862837	126
0	1500	96.791479862837	127
0	1525	98.091883542325	128
0	1525	98.091883542325	129
0	1550	99.759598433582	130
0	1550	99.759598433582	131
0	1571	101.05367509586	132
0	1571	101.05367509586	133
0	1596	102.835764471518	134
0	1596	102.835764471518	135
0	1621	104.086162687356	136
0	1621	104.086162687356	137
0	1646	105.754396662426	138
0	1646	105.754396662426	139
0	1667	106.817950442278	140
0	1667	106.817950442278	141
0	1689	108.37255382825	142
0	1689	108.37255382825	143
0	1711	109.961365531975	144
0	1711	109.961365531975	145
0	1736	111.846572807835	146
0	1736	111.846572807835	147
0	1761	113.720129637125	148
0	1761	113.720129637125	149
0	1786	114.909883255915	150
0	1786	114.909883255915	151
0	1811	116.477729260301	152
0	1811	116.477729260301	153
0	1836	118.218960927645	154
0	1836	118.218960927645	155
0	1861	119.976325068236	156
0	1861	119.976325068236	157
0	1886	121.620745353712	158
0	1886	121.620745353712	159
0	1911	123.326455394117	160
0	1911	123.326455394117	161
0	1933	124.533751371162	162
0	1933	124.533751371162	163
0	1958	126.024952413592	164
0	1958	126.024952413592	165
0	1983	127.616017794081	166
0	1983	127.616017794081	167
0	2008	128.677012800549	168
0	2008	128.677012800549	169
0	2033	129.720988232952	170
0	2033	129.720988232952	171
0	2058	131.719013717335	172
0	2058	131.719013717335	173
0	2083	132.848369482981	174
0	2083	132.848369482981	175
0	2108	134.301099979628	176
0	2108	134.301099979628	177
0	2133	136.124817654567	178
0	2133	136.124817654567	179
0	2147	138.02964435898	180
0	2147	138.02964435898	181
0	2172	139.925555549173	182
0	2172	139.925555549173	183
0	2194	140.9684617434	184
0	2194	140.9684617434	185
0	2219	142.935516660644	186
0	2219	142.935516660644	187
0	2244	144.42054719765	188
0	2244	144.42054719765	189
0	2269	146.382942269866	190
0	2269	146.382942269866	191
0	2294	147.958003979719	192
0	2294	147.958003979719	193
0	2319	149.464346900194	194
0	2319	149.464346900194	195
0	2344	150.524682245062	196
0	2344	150.524682245062	197
0	2369	152.010954330054	198
0	2369	152.010954330054	199
0	2394	153.860337291689	200
0	2394	153.860337291689	201
0	2419	155.147053973594	202
0	2419	155.147053973594	203
0	2422	156.532793041862	204
0	2422	156.532793041862	205
0	2444	158.34921407265	206
0	2444	158.34921407265	207
0	2466	160.341881064776	208
0	2466	160.341881064776	209
0	2491	161.699520094398	210
0	2491	161.699520094398	211
0	2516	163.00277291153	212
0	2516	163.00277291153	213
0	2541	164.696519937212	214
0	2541	164.696519937212	215
0	2566	166.618613825258	216
0	2566	166.618613825258	217
0	2591	167.720930641363	218
0	2591	167.720930641363	219
0	2616	168.738699317523	220
0	2616	168.738699317523	221
0	2638	170.623059676806	222
0	2638	170.623059676806	223
0	2663	172.617292762813	224
0	2663	172.617292762813	225
0	2688	173.779743493148	226
0	2688	173.779743493148	227
0	2713	175.473830870897	228
0	2713	175.473830870897	229
0	2738	177.199147102967	230
0	2738	177.199147102967	231
0	2756	178.859117652368	232
0	2756	178.859117652368	233
0	2781	180.078978428696	234
0	2781	180.078978428696	235
0	2806	181.141109235431	236
0	2806	181.141109235431	237
0	2828	182.628257360156	238
0	2828	182.628257360156	239
0	2850	183.887857592511	240
0	2850	183.887857592511	241
0	2872	185.14292137356	242
0	2872	185.14292137356	243
0	2897	186.603971586875	244
0	2897	186.603971586875	245
0	2919	187.678893027441	246
0	2919	187.678893027441	247
0	2944	188.965618874259	248
0	2944	188.965618874259	249
0	2966	190.408491904694	250
0	2966	190.408491904694	251
0	2991	192.365036006864	252
0	2991	192.365036006864	253
0	3016	194.124526107298	254
0	3016	194.124526107298	255
0	3038	196.104992569737	256
0	3038	196.104992569737	257
0	3063	198.084262804674	258
0	3063	198.084262804674	259
0	3088	200.015139837597	260
0	3088	200.015139837597	261
0	3113	201.496182286261	262
0	3113	201.496182286261	263
0	3138	203.47483677332	264
0	3138	203.47483677332	265
0	3163	204.909978761186	266
0	3163	204.909978761186	267
0	3188	206.299265833187	268
0	3188	206.299265833187	269
0	3213	207.39802572116	270
0	3213	207.39802572116	271
0	3238	208.98919665449	272
0	3238	208.98919665449	273
0	3263	210.101420971879	274
0	3263	210.101420971879	275
0	3288	212.03951437989	276
0	3288	212.03951437989	277
0	3310	213.839344309957	278
0	3310	213.839344309957	279
0	3335	215.309665587579	280
0	3335	215.309665587579	281
0	3360	216.436177682445	282
0	3360	216.436177682445	283
0	3385	218.108804824843	284
0	3385	218.108804824843	285
0	3410	219.720774587558	286
0	3410	219.720774587558	287
0	3435	221.236207674804	288
0	3435	221.236207674804	289
0	3460	222.844609310699	290
0	3460	222.844609310699	291
0	3482	223.954292370553	292
0	3482	223.954292370553	293
0	3507	225.788878753862	294
0	3507	225.788878753862	295
0	3532	226.803778763475	296
0	3532	226.803778763475	297
0	3557	228.504412104223	298
0	3557	228.504412104223	299
0	3582	229.887793505877	300
0	3582	229.887793505877	301
0	3604	231.549371153895	302
0	3604	231.549371153895	303
0	3629	233.51757554555	304
0	3629	233.51757554555	305
0	3651	235.347723726031	306
0	3651	235.347723726031	307
0	3676	236.636877097736	308
0	3676	236.636877097736	309
0	3701	238.545969855121	310
0	3701	238.545969855121	311
0	3726	239.769687619839	312
0	3726	239.769687619839	313
1	4	0.142870607559	0
1	4	0.142870607559	1
1	4	0.142870607559	2
1	29	1.717856035382	3
1	29	1.717856035382	4
1	29	1.717856035382	5
1	54	3.65042416164	6
1	54	3.65042416164	7
1	54	3.65042416164	8
1	80	5.236186995842	9
1	80	5.236186995842	10
1	80	5.236186995842	11
1	104	7.178542391629	12
1	104	7.178542391629	13
1	104	7.178542391629	14
1	129	8.209097913075	15
1	129	8.209097913075	16
1	129	8.209097913075	17
1	162	9.384007757846	18
1	162	9.384007757846	19
1	162	9.384007757846	20
1	185	12.364162780394	21
1	185	12.364162780394	22
1	185	12.364162780394	23
1	214	14.062911281284	24
1	214	14.062911281284	25
1	214	14.062911281284	26
1	233	15.776606690114	27
1	233	15.776606690114	28
1	233	15.776606690114	29
1	258	17.187967213764	30
1	258	17.187967213764	31
1	258	17.187967213764	32
1	279	18.484394933017	33
1	279	18.484394933017	34
1	279	18.484394933017	35
1	304	20.131234931497	36
1	304	20.131234931497	37
1	304	20.131234931497	38
1	322	22.040172572293	39
1	322	22.040172572293	40
1	322	22.040172572293	41
1	347	24.018261758057	42
1	347	24.018261758057	43
1	347	24.018261758057	44
1	372	25.245284811334	45
1	372	25.245284811334	46
1	372	25.245284811334	47
1	397	26.467375522716	48
1	397	26.467375522716	49
1	397	26.467375522716	50
1	419	28.448899228739	51
1	419	28.448899228739	52
1	419	28.448899228739	53
1	444	29.9665176702	54
1	444	29.9665176702	55
1	444	29.9665176702	56
1	469	30.965160637809	57
1	469	30.965160637809	58
1	469	30.965160637809	59
1	497	32.006850735105	60
1	497	32.006850735105	61
1	497	32.006850735105	62
1	520	33.455103493389	63
1	520	33.455103493389	64
1	520	33.455103493389	65
1	545	35.422910799613	66
1	545	35.422910799613	67
1	545	35.422910799613	68
1	570	37.205392192563	69
1	570	37.205392192563	70
1	570	37.205392192563	71
1	602	38.273945471225	72
1	602	38.273945471225	73
1	602	38.273945471225	74
1	622	41.924290155012	75
1	622	41.924290155012	76
1	622	41.924290155012	77
1	648	43.457713022249	78
1	648	43.457713022249	79
1	648	43.457713022249	80
1	673	44.520934632142	81
1	673	44.520934632142	82
1	673	44.520934632142	83
1	697	46.378204039655	84
1	697	46.378204039655	85
1	697	46.378204039655	86
1	726	47.857599642895	87
1	726	47.857599642895	88
1	726	47.857599642895	89
1	747	49.231543440979	90
1	747	49.231543440979	91
1	747	49.231543440979	92
1	769	50.816334830136	93
1	769	50.816334830136	94
1	769	50.816334830136	95
1	795	52.38076298233	96
1	795	52.38076298233	97
1	795	52.38076298233	98
1	820	53.495002981784	99
1	820	53.495002981784	100
1	820	53.495002981784	101
1	844	55.109598698333	102
1	844	55.109598698333	103
1	844	55.109598698333	104
1	866	56.493503877486	105
1	866	56.493503877486	106
1	866	56.493503877486	107
1	891	57.868468865226	108
1	891	57.868468865226	109
1	891	57.868468865226	110
1	923	59.141328429342	111
1	923	59.141328429342	112
1	923	59.141328429342	113
1	941	60.489027578557	114
1	941	60.489027578557	115
1	941	60.489027578557	116
1	966	61.725723332293	117
1	966	61.725723332293	118
1	966	61.725723332293	119
1	991	63.394866819279	120
1	991	63.394866819279	121
1	991	63.394866819279	122
1	1017	64.963603441404	123
1	1017	64.963603441404	124
1	1017	64.963603441404	125
1	1039	66.875882808499	126
1	1039	66.875882808499	127
1	1039	66.875882808499	128
1	1063	68.511156257948	129
1	1063	68.511156257948	130
1	1063	68.511156257948	131
1	1088	69.549221394256	132
1	1088	69.549221394256	133
1	1088	69.549221394256	134
1	1113	71.505941760606	135
1	1113	71.505941760606	136
1	1113	71.505941760606	137
1	1139	72.597627309209	138
1	1139	72.597627309209	139
1	1139	72.597627309209	140
1	1161	74.283636287699	141
1	1161	74.283636287699	142
1	1161	74.283636287699	143
1	1186	75.524148840427	144
1	1186	75.524148840427	145
1	1186	75.524148840427	146
1	1210	77.414745807428	147
1	1210	77.414745807428	148
1	1210	77.414745807428	149
1	1236	79.347512068807	150
1	1236	79.347512068807	151
1	1236	79.347512068807	152
1	1260	80.942268279985	153
1	1260	80.942268279985	154
1	1260	80.942268279985	155
1	1296	82.050832149879	156
1	1296	82.050832149879	157
1	1296	82.050832149879	158
1	1310	83.968354577085	159
1	1310	83.968354577085	160
1	1310	83.968354577085	161
1	1335	85.934825089399	162
1	1335	85.934825089399	163
1	1335	85.934825089399	164
1	1364	87.616933986267	165
1	1364	87.616933986267	166
1	1364	87.616933986267	167
1	1392	89.49494859912	168
1	1392	89.49494859912	169
1	1392	89.49494859912	170
1	1410	90.464575004899	171
1	1410	90.464575004899	172
1	1410	90.464575004899	173
1	1433	91.751542958238	174
1	1433	91.751542958238	175
1	1433	91.751542958238	176
1	1453	93.082990841439	177
1	1453	93.082990841439	178
1	1453	93.082990841439	179
1	1479	94.954660418282	180
1	1479	94.954660418282	181
1	1479	94.954660418282	182
1	1503	96.809453847595	183
1	1503	96.809453847595	184
1	1503	96.809453847595	185
1	1528	98.110366210423	186
1	1528	98.110366210423	187
1	1528	98.110366210423	188
1	1553	99.775633221506	189
1	1553	99.775633221506	190
1	1553	99.775633221506	191
1	1574	101.066512596885	192
1	1574	101.066512596885	193
1	1574	101.066512596885	194
1	1599	102.852369210461	195
1	1599	102.852369210461	196
1	1599	102.852369210461	197
1	1625	104.102267022786	198
1	1625	104.102267022786	199
1	1625	104.102267022786	200
1	1649	105.766731799486	201
1	1649	105.766731799486	202
1	1649	105.766731799486	203
1	1670	106.828211381928	204
1	1670	106.828211381928	205
1	1670	106.828211381928	206
1	1695	108.405233732158	207
1	1695	108.405233732158	208
1	1695	108.405233732158	209
1	1717	109.989999391813	210
1	1717	109.989999391813	211
1	1717	109.989999391813	212
1	1739	111.863343424959	213
1	1739	111.863343424959	214
1	1739	111.863343424959	215
1	1765	113.737487570395	216
1	1765	113.737487570395	217
1	1765	113.737487570395	218
1	1789	114.929589913393	219
1	1789	114.929589913393	220
1	1789	114.929589913393	221
1	1818	116.515364024707	222
1	1818	116.515364024707	223
1	1818	116.515364024707	224
1	1839	118.2327380647	225
1	1839	118.2327380647	226
1	1839	118.2327380647	227
1	1875	120.033293453586	228
1	1875	120.033293453586	229
1	1875	120.033293453586	230
1	1890	121.635774477879	231
1	1890	121.635774477879	232
1	1890	121.635774477879	233
1	1914	123.347390587888	234
1	1914	123.347390587888	235
1	1914	123.347390587888	236
1	1936	124.544502382871	237
1	1936	124.544502382871	238
1	1936	124.544502382871	239
1	1961	126.060426926101	240
1	1961	126.060426926101	241
1	1961	126.060426926101	242
1	1987	127.644943707372	243
1	1987	127.644943707372	244
1	1987	127.644943707372	245
1	2014	128.708175639029	246
1	2014	128.708175639029	247
1	2014	128.708175639029	248
1	2040	129.74631829701	249
1	2040	129.74631829701	250
1	2040	129.74631829701	251
1	2062	131.735390034528	252
1	2062	131.735390034528	253
1	2062	131.735390034528	254
1	2087	132.862316480973	255
1	2087	132.862316480973	256
1	2087	132.862316480973	257
1	2111	134.313749700985	258
1	2111	134.313749700985	259
1	2111	134.313749700985	260
1	2137	136.145351010702	261
1	2137	136.145351010702	262
1	2137	136.145351010702	263
1	2150	138.040999437256	264
1	2150	138.040999437256	265
1	2150	138.040999437256	266
1	2175	139.947623839386	267
1	2175	139.947623839386	268
1	2175	139.947623839386	269
1	2198	140.988008370082	270
1	2198	140.988008370082	271
1	2198	140.988008370082	272
1	2226	142.968103580886	273
1	2226	142.968103580886	274
1	2226	142.968103580886	275
1	2247	144.431718406041	276
1	2247	144.431718406041	277
1	2247	144.431718406041	278
1	2273	146.395909737724	279
1	2273	146.395909737724	280
1	2273	146.395909737724	281
1	2297	147.97231023478	282
1	2297	147.97231023478	283
1	2297	147.97231023478	284
1	2325	149.497193591584	285
1	2325	149.497193591584	286
1	2325	149.497193591584	287
1	2347	150.543553241153	288
1	2347	150.543553241153	289
1	2347	150.543553241153	290
1	2375	152.039840659618	291
1	2375	152.039840659618	292
1	2375	152.039840659618	293
1	2397	153.870533835261	294
1	2397	153.870533835261	295
1	2397	153.870533835261	296
1	2425	156.559272948223	297
1	2425	156.559272948223	298
1	2425	156.559272948223	299
1	2447	158.360476685955	300
1	2447	158.360476685955	301
1	2447	158.360476685955	302
1	2469	160.351927721787	303
1	2469	160.351927721787	304
1	2469	160.351927721787	305
1	2502	161.748847351745	306
1	2502	161.748847351745	307
1	2502	161.748847351745	308
1	2522	163.03758289429	309
1	2522	163.03758289429	310
1	2522	163.03758289429	311
1	2551	164.746204932565	312
1	2551	164.746204932565	313
1	2551	164.746204932565	314
1	2569	166.632069442625	315
1	2569	166.632069442625	316
1	2569	166.632069442625	317
1	2598	167.76266625269	318
1	2598	167.76266625269	319
1	2598	167.76266625269	320
1	2619	168.763359428457	321
1	2619	168.763359428457	322
1	2619	168.763359428457	323
1	2642	170.64259882104	324
1	2642	170.64259882104	325
1	2642	170.64259882104	326
1	2666	172.628143779614	327
1	2666	172.628143779614	328
1	2666	172.628143779614	329
1	2694	173.804939138108	330
1	2694	173.804939138108	331
1	2694	173.804939138108	332
1	2716	175.484858505932	333
1	2716	175.484858505932	334
1	2716	175.484858505932	335
1	2741	177.21782777385	336
1	2741	177.21782777385	337
1	2741	177.21782777385	338
1	2759	178.872323778942	339
1	2759	178.872323778942	340
1	2759	178.872323778942	341
1	2787	180.105652219113	342
1	2787	180.105652219113	343
1	2787	180.105652219113	344
1	2816	181.197536416947	345
1	2816	181.197536416947	346
1	2816	181.197536416947	347
1	2831	182.638876943596	348
1	2831	182.638876943596	349
1	2831	182.638876943596	350
1	2853	183.911742025221	351
1	2853	183.911742025221	352
1	2853	183.911742025221	353
1	2876	185.180279778684	354
1	2876	185.180279778684	355
1	2876	185.180279778684	356
1	2900	186.622030608617	357
1	2900	186.622030608617	358
1	2900	186.622030608617	359
1	2923	187.691082629125	360
1	2923	187.691082629125	361
1	2923	187.691082629125	362
1	2947	188.998455306287	363
1	2947	188.998455306287	364
1	2947	188.998455306287	365
1	2969	190.429493103631	366
1	2969	190.429493103631	367
1	2969	190.429493103631	368
1	2994	192.376379407441	369
1	2994	192.376379407441	370
1	2994	192.376379407441	371
1	3020	194.143409511178	372
1	3020	194.143409511178	373
1	3020	194.143409511178	374
1	3041	196.125480981362	375
1	3041	196.125480981362	376
1	3041	196.125480981362	377
1	3066	198.10611738692	378
1	3066	198.10611738692	379
1	3066	198.10611738692	380
1	3091	200.02868155835	381
1	3091	200.02868155835	382
1	3091	200.02868155835	383
1	3117	201.516223763266	384
1	3117	201.516223763266	385
1	3117	201.516223763266	386
1	3141	203.493775383206	387
1	3141	203.493775383206	388
1	3141	203.493775383206	389
1	3167	204.923767779775	390
1	3167	204.923767779775	391
1	3167	204.923767779775	392
1	3192	206.323073172074	393
1	3192	206.323073172074	394
1	3192	206.323073172074	395
1	3216	207.408612598914	396
1	3216	207.408612598914	397
1	3216	207.408612598914	398
1	3241	209.001345118225	399
1	3241	209.001345118225	400
1	3241	209.001345118225	401
1	3274	210.148274943343	402
1	3274	210.148274943343	403
1	3274	210.148274943343	404
1	3294	212.081834596446	405
1	3294	212.081834596446	406
1	3294	212.081834596446	407
1	3317	213.881457266755	408
1	3317	213.881457266755	409
1	3317	213.881457266755	410
1	3346	215.380785602762	411
1	3346	215.380785602762	412
1	3346	215.380785602762	413
1	3363	216.463808265337	414
1	3363	216.463808265337	415
1	3363	216.463808265337	416
1	3388	218.123410887161	417
1	3388	218.123410887161	418
1	3388	218.123410887161	419
1	3414	219.736152331144	420
1	3414	219.736152331144	421
1	3414	219.736152331144	422
1	3439	221.250668577566	423
1	3439	221.250668577566	424
1	3439	221.250668577566	425
1	3463	222.858490931756	426
1	3463	222.858490931756	427
1	3463	222.858490931756	428
1	3492	224.023238750279	429
1	3492	224.023238750279	430
1	3492	224.023238750279	431
1	3511	225.809167069176	432
1	3511	225.809167069176	433
1	3511	225.809167069176	434
1	3538	226.832218710416	435
1	3538	226.832218710416	436
1	3538	226.832218710416	437
1	3561	228.533755738263	438
1	3561	228.533755738263	439
1	3561	228.533755738263	440
1	3585	229.898401874286	441
1	3585	229.898401874286	442
1	3585	229.898401874286	443
1	3608	231.561935524434	444
1	3608	231.561935524434	445
1	3608	231.561935524434	446
1	3632	233.561583021778	447
1	3632	233.561583021778	448
1	3632	233.561583021778	449
1	3655	235.359679639021	450
1	3655	235.359679639021	451
1	3655	235.359679639021	452
1	3679	236.64895177957	453
1	3679	236.64895177957	454
1	3679	236.64895177957	455
1	3704	238.563732654306	456
1	3704	238.563732654306	457
1	3704	238.563732654306	458
1	3729	239.782039815764	459
1	3729	239.782039815764	460
1	3729	239.782039815764	461
2	5	0.143790018797	0
2	5	0.143790018797	1
2	30	1.718030792088	2
2	30	1.718030792088	3
2	55	3.656929461856	4
2	55	3.656929461856	5
2	79	5.229190791246	6
2	79	5.229190791246	7
2	113	7.200413147998	8
2	113	7.200413147998	9
2	130	8.211509246687	10
2	130	8.211509246687	11
2	154	9.349546251237	12
2	154	9.349546251237	13
2	179	10.790056382243	14
2	179	10.790056382243	15
2	189	12.375348811359	16
2	189	12.375348811359	17
2	207	14.033020059232	18
2	207	14.033020059232	19
2	232	15.768227974707	20
2	232	15.768227974707	21
2	257	17.180600008024	22
2	257	17.180600008024	23
2	284	18.501435167933	24
2	284	18.501435167933	25
2	305	20.13795128164	26
2	305	20.13795128164	27
2	323	22.04094841791	28
2	323	22.04094841791	29
2	351	24.033858930574	30
2	351	24.033858930574	31
2	369	25.22758962585	32
2	369	25.22758962585	33
2	394	26.456855686587	34
2	394	26.456855686587	35
2	424	28.472597353845	36
2	424	28.472597353845	37
2	445	29.968321745552	38
2	445	29.968321745552	39
2	470	30.968363771332	40
2	470	30.968363771332	41
2	494	31.990790544328	42
2	494	31.990790544328	43
2	519	33.454403576922	44
2	519	33.454403576922	45
2	544	35.416048839282	46
2	544	35.416048839282	47
2	569	37.202730175388	48
2	569	37.202730175388	49
2	594	38.234182594641	50
2	594	38.234182594641	51
2	627	41.942101587468	52
2	627	41.942101587468	53
2	647	43.457163124657	54
2	647	43.457163124657	55
2	672	44.511462344795	56
2	672	44.511462344795	57
2	694	46.363475361417	58
2	694	46.363475361417	59
2	719	47.828343199823	60
2	719	47.828343199823	61
2	744	49.219221450277	62
2	744	49.219221450277	63
2	770	50.823095934912	64
2	770	50.823095934912	65
2	794	52.379867387126	66
2	794	52.379867387126	67
2	819	53.494823933813	68
2	819	53.494823933813	69
2	845	55.112842966524	70
2	845	55.112842966524	71
2	871	56.509610953719	72
2	871	56.509610953719	73
2	895	57.881055972072	74
2	895	57.881055972072	75
2	916	59.109930410643	76
2	916	59.109930410643	77
2	947	60.510622456547	78
2	947	60.510622456547	79
2	967	61.731699841144	80
2	967	61.731699841144	81
2	992	63.397774893121	82
2	992	63.397774893121	83
2	1013	64.944274471625	84
2	1013	64.944274471625	85
2	1038	66.871118010299	86
2	1038	66.871118010299	87
2	1064	68.516696190149	88
2	1064	68.516696190149	89
2	1089	69.55590110581	90
2	1089	69.55590110581	91
2	1114	71.508638608026	92
2	1114	71.508638608026	93
2	1138	72.594682170222	94
2	1138	72.594682170222	95
2	1160	74.276516854619	96
2	1160	74.276516854619	97
2	1185	75.520511351211	98
2	1185	75.520511351211	99
2	1211	77.416208050179	100
2	1211	77.416208050179	101
2	1235	79.341810803884	102
2	1235	79.341810803884	103
2	1279	80.978576332897	104
2	1279	80.978576332897	105
2	1285	82.014937758579	106
2	1285	82.014937758579	107
2	1329	84.033865139014	108
2	1329	84.033865139014	109
2	1336	85.943107678125	110
2	1336	85.943107678125	111
2	1360	87.605282742027	112
2	1360	87.605282742027	113
2	1385	89.462978485852	114
2	1385	89.462978485852	115
2	1411	90.464740337154	116
2	1411	90.464740337154	117
2	1432	91.744630484039	118
2	1432	91.744630484039	119
2	1467	93.114953661674	120
2	1467	93.114953661674	121
2	1478	94.952279856705	122
2	1478	94.952279856705	123
2	1507	96.828190112572	124
2	1507	96.828190112572	125
2	1529	98.116786033192	126
2	1529	98.116786033192	127
2	1554	99.776409786363	128
2	1554	99.776409786363	129
2	1582	101.094567907608	130
2	1582	101.094567907608	131
2	1618	102.951867260308	132
2	1618	102.951867260308	133
2	1624	104.097051729605	134
2	1624	104.097051729605	135
2	1655	105.791337239276	136
2	1655	105.791337239276	137
2	1671	106.828540732807	138
2	1671	106.828540732807	139
2	1692	108.391112320464	140
2	1692	108.391112320464	141
2	1714	109.978501643508	142
2	1714	109.978501643508	143
2	1743	111.879495304093	144
2	1743	111.879495304093	145
2	1764	113.73484559433	146
2	1764	113.73484559433	147
2	1804	114.974028139541	148
2	1804	114.974028139541	149
2	1814	116.49849584679	150
2	1814	116.49849584679	151
2	1840	118.239670478109	152
2	1840	118.239670478109	153
2	1864	119.990375800528	154
2	1864	119.990375800528	155
2	1889	121.634468171543	156
2	1889	121.634468171543	157
2	1915	123.350475163587	158
2	1915	123.350475163587	159
2	1952	124.595444846481	160
2	1952	124.595444846481	161
2	1980	126.111254916547	162
2	1980	126.111254916547	163
2	1986	127.637909474826	164
2	1986	127.637909474826	165
2	2011	128.694354188712	166
2	2011	128.694354188712	167
2	2036	129.733619841918	168
2	2036	129.733619841918	169
2	2061	131.729718940981	170
2	2061	131.729718940981	171
2	2086	132.861938939344	172
2	2086	132.861938939344	173
2	2112	134.314819739712	174
2	2112	134.314819739712	175
2	2136	136.145059402357	176
2	2136	136.145059402357	177
2	2151	138.04471914062	178
2	2151	138.04471914062	179
2	2180	139.96000675759	180
2	2180	139.96000675759	181
2	2197	140.986501169077	182
2	2197	140.986501169077	183
2	2222	142.947857231107	184
2	2222	142.947857231107	185
2	2248	144.440512227054	186
2	2248	144.440512227054	187
2	2272	146.395644490861	188
2	2272	146.395644490861	189
2	2298	147.980259709738	190
2	2298	147.980259709738	191
2	2322	149.475613107971	192
2	2322	149.475613107971	193
2	2356	150.57594296715	194
2	2356	150.57594296715	195
2	2372	152.023799438372	196
2	2372	152.023799438372	197
2	2398	153.875432596062	198
2	2398	153.875432596062	199
2	2438	156.589715120827	200
2	2438	156.589715120827	201
2	2459	158.387061678838	202
2	2459	158.387061678838	203
2	2470	160.357412376987	204
2	2470	160.357412376987	205
2	2494	161.712315960948	206
2	2494	161.712315960948	207
2	2519	163.015775552324	208
2	2519	163.015775552324	209
2	2544	164.721222269161	210
2	2544	164.721222269161	211
2	2579	166.669353429782	212
2	2579	166.669353429782	213
2	2594	167.748279062178	214
2	2594	167.748279062178	215
2	2629	168.787109351407	216
2	2629	168.787109351407	217
2	2641	170.633438041424	218
2	2641	170.633438041424	219
2	2667	172.634491468071	220
2	2667	172.634491468071	221
2	2691	173.791593858896	222
2	2691	173.791593858896	223
2	2717	175.485080740548	224
2	2717	175.485080740548	225
2	2742	177.224058310129	226
2	2742	177.224058310129	227
2	2760	178.881218918809	228
2	2760	178.881218918809	229
2	2784	180.092353505997	230
2	2784	180.092353505997	231
2	2809	181.17543058818	232
2	2809	181.17543058818	233
2	2832	182.640612817455	234
2	2832	182.640612817455	235
2	2869	183.960118274506	236
2	2869	183.960118274506	237
2	2875	185.174529175664	238
2	2875	185.174529175664	239
2	2901	186.622567305923	240
2	2901	186.622567305923	241
2	2922	187.688982466202	242
2	2922	187.688982466202	243
2	2960	189.031419360713	244
2	2960	189.031419360713	245
2	2974	190.451790096409	246
2	2974	190.451790096409	247
2	3007	192.411190736794	248
2	3007	192.411190736794	249
2	3019	194.134991895889	250
2	3019	194.134991895889	251
2	3045	196.136278724698	252
2	3045	196.136278724698	253
2	3082	198.16549835387	254
2	3082	198.16549835387	255
2	3096	200.04498546131	256
2	3096	200.04498546131	257
2	3116	201.507625934137	258
2	3116	201.507625934137	259
2	3142	203.49765220835	260
2	3142	203.49765220835	261
2	3166	204.922663864469	262
2	3166	204.922663864469	263
2	3191	206.315292565955	264
2	3191	206.315292565955	265
2	3220	207.420796091712	266
2	3220	207.420796091712	267
2	3242	209.003452431812	268
2	3242	209.003452431812	269
2	3266	210.111424646056	270
2	3266	210.111424646056	271
2	3291	212.065556553682	272
2	3291	212.065556553682	273
2	3313	213.852092525516	274
2	3313	213.852092525516	275
2	3338	215.321487308121	276
2	3338	215.321487308121	277
2	3364	216.465329775827	278
2	3364	216.465329775827	279
2	3389	218.133298033529	280
2	3389	218.133298033529	281
2	3413	219.733404546576	282
2	3413	219.733404546576	283
2	3438	221.248141132037	284
2	3438	221.248141132037	285
2	3464	222.860170921774	286
2	3464	222.860170921774	287
2	3485	223.964690899461	288
2	3485	223.964690899461	289
2	3510	225.803363073596	290
2	3510	225.803363073596	291
2	3535	226.822141305415	292
2	3535	226.822141305415	293
2	3560	228.524434371735	294
2	3560	228.524434371735	295
2	3589	229.914452622118	296
2	3589	229.914452622118	297
2	3607	231.559529787877	298
2	3607	231.559529787877	299
2	3633	233.564346249123	300
2	3633	233.564346249123	301
2	3654	235.358761542659	302
2	3654	235.358761542659	303
2	3680	236.658841390889	304
2	3680	236.658841390889	305
2	3718	238.601789144752	306
2	3718	238.601789144752	307
2	3739	239.81968741667	308
2	3739	239.81968741667	309
3	11	0.158381092426	0
3	11	0.158381092426	1
3	11	0.158381092426	2
3	36	1.729543100625	3
3	36	1.729543100625	4
3	36	1.729543100625	5
3	60	3.665779818842	6
3	60	3.665779818842	7
3	60	3.665779818842	8
3	86	5.262454301863	9
3	86	5.262454301863	10
3	86	5.262454301863	11
3	109	7.190885406817	12
3	109	7.190885406817	13
3	109	7.190885406817	14
3	134	8.219234558859	15
3	134	8.219234558859	16
3	134	8.219234558859	17
3	157	9.360810137601	18
3	157	9.360810137601	19
3	157	9.360810137601	20
3	190	12.377237957632	21
3	190	12.377237957632	22
3	190	12.377237957632	23
3	210	14.048063497298	24
3	210	14.048063497298	25
3	210	14.048063497298	26
3	240	15.799576279207	27
3	240	15.799576279207	28
3	240	15.799576279207	29
3	265	17.204429800089	30
3	265	17.204429800089	31
3	265	17.204429800089	32
3	283	18.495418139166	33
3	283	18.495418139166	34
3	283	18.495418139166	35
3	309	20.142556768593	36
3	309	20.142556768593	37
3	309	20.142556768593	38
3	329	22.070300299655	39
3	329	22.070300299655	40
3	329	22.070300299655	41
3	354	24.049022068661	42
3	354	24.049022068661	43
3	354	24.049022068661	44
3	376	25.257561345525	45
3	376	25.257561345525	46
3	376	25.257561345525	47
3	398	26.47255466224	48
3	398	26.47255466224	49
3	398	26.47255466224	50
3	423	28.464987557876	51
3	423	28.464987557876	52
3	423	28.464987557876	53
3	451	29.978571147887	54
3	451	29.978571147887	55
3	451	29.978571147887	56
3	477	30.985552694175	57
3	477	30.985552694175	58
3	477	30.985552694175	59
3	498	32.007485950237	60
3	498	32.007485950237	61
3	498	32.007485950237	62
3	523	33.46505470557	63
3	523	33.46505470557	64
3	523	33.46505470557	65
3	548	35.42868461041	66
3	548	35.42868461041	67
3	548	35.42868461041	68
3	587	37.25474876965	69
3	587	37.25474876965	70
3	587	37.25474876965	71
3	597	38.248392527621	72
3	597	38.248392527621	73
3	597	38.248392527621	74
3	626	41.935228900485	75
3	626	41.935228900485	76
3	626	41.935228900485	77
3	654	43.474598956575	78
3	654	43.474598956575	79
3	654	43.474598956575	80
3	676	44.530319951255	81
3	676	44.530319951255	82
3	676	44.530319951255	83
3	706	46.405523449713	84
3	706	46.405523449713	85
3	706	46.405523449713	86
3	722	47.846992580917	87
3	722	47.846992580917	88
3	722	47.846992580917	89
3	748	49.231966085497	90
3	748	49.231966085497	91
3	748	49.231966085497	92
3	774	50.827223153963	93
3	774	50.827223153963	94
3	774	50.827223153963	95
3	801	52.391915909797	96
3	801	52.391915909797	97
3	801	52.391915909797	98
3	827	53.515317355472	99
3	827	53.515317355472	100
3	827	53.515317355472	101
3	852	55.129780874121	102
3	852	55.129780874121	103
3	852	55.129780874121	104
3	870	56.509021898702	105
3	870	56.509021898702	106
3	870	56.509021898702	107
3	896	57.883277647469	108
3	896	57.883277647469	109
3	896	57.883277647469	110
3	919	59.129903399885	111
3	919	59.129903399885	112
3	919	59.129903399885	113
3	946	60.50697980057	114
3	946	60.50697980057	115
3	946	60.50697980057	116
3	974	61.744989718296	117
3	974	61.744989718296	118
3	974	61.744989718296	119
3	996	63.405125099723	120
3	996	63.405125099723	121
3	996	63.405125099723	122
3	1016	64.95827828694	123
3	1016	64.95827828694	124
3	1016	64.95827828694	125
3	1042	66.884440616535	126
3	1042	66.884440616535	127
3	1042	66.884440616535	128
3	1076	68.555850196336	129
3	1076	68.555850196336	130
3	1076	68.555850196336	131
3	1095	69.571144551998	132
3	1095	69.571144551998	133
3	1095	69.571144551998	134
3	1121	71.537768899499	135
3	1121	71.537768899499	136
3	1121	71.537768899499	137
3	1142	72.605049160925	138
3	1142	72.605049160925	139
3	1142	72.605049160925	140
3	1164	74.292319750499	141
3	1164	74.292319750499	142
3	1164	74.292319750499	143
3	1192	75.534376293031	144
3	1192	75.534376293031	145
3	1192	75.534376293031	146
3	1217	77.427469319692	147
3	1217	77.427469319692	148
3	1217	77.427469319692	149
3	1243	79.393565239926	150
3	1243	79.393565239926	151
3	1243	79.393565239926	152
3	1264	80.953744598817	153
3	1264	80.953744598817	154
3	1264	80.953744598817	155
3	1288	82.02731441729	156
3	1288	82.02731441729	157
3	1288	82.02731441729	158
3	1314	83.984763731317	159
3	1314	83.984763731317	160
3	1314	83.984763731317	161
3	1341	85.949628007537	162
3	1341	85.949628007537	163
3	1341	85.949628007537	164
3	1363	87.615586821965	165
3	1363	87.615586821965	166
3	1363	87.615586821965	167
3	1388	89.480405723349	168
3	1388	89.480405723349	169
3	1388	89.480405723349	170
3	1418	90.475259393653	171
3	1418	90.475259393653	172
3	1418	90.475259393653	173
3	1436	91.758929706066	174
3	1436	91.758929706066	175
3	1436	91.758929706066	176
3	1458	93.101658252146	177
3	1458	93.101658252146	178
3	1458	93.101658252146	179
3	1492	94.99759227071	180
3	1492	94.99759227071	181
3	1492	94.99759227071	182
3	1515	96.847039460824	183
3	1515	96.847039460824	184
3	1515	96.847039460824	185
3	1546	98.16851319042	186
3	1546	98.16851319042	187
3	1546	98.16851319042	188
3	1561	99.793300475327	189
3	1561	99.793300475327	190
3	1561	99.793300475327	191
3	1578	101.081736889318	192
3	1578	101.081736889318	193
3	1578	101.081736889318	194
3	1614	102.931251727145	195
3	1614	102.931251727145	196
3	1614	102.931251727145	197
3	1628	104.108244378305	198
3	1628	104.108244378305	199
3	1628	104.108244378305	200
3	1653	105.785950592069	201
3	1653	105.785950592069	202
3	1653	105.785950592069	203
3	1677	106.838717464021	204
3	1677	106.838717464021	205
3	1677	106.838717464021	206
3	1696	108.405788561237	207
3	1696	108.405788561237	208
3	1696	108.405788561237	209
3	1718	109.992948828058	210
3	1718	109.992948828058	211
3	1718	109.992948828058	212
3	1745	111.885684225226	213
3	1745	111.885684225226	214
3	1745	111.885684225226	215
3	1771	113.760721887206	216
3	1771	113.760721887206	217
3	1771	113.760721887206	218
3	1797	114.959748088036	219
3	1797	114.959748088036	220
3	1797	114.959748088036	221
3	1817	116.509727680513	222
3	1817	116.509727680513	223
3	1817	116.509727680513	224
3	1847	118.251054494227	225
3	1847	118.251054494227	226
3	1847	118.251054494227	227
3	1867	120.009160755433	228
3	1867	120.009160755433	229
3	1867	120.009160755433	230
3	1896	121.649451059715	231
3	1896	121.649451059715	232
3	1896	121.649451059715	233
3	1926	123.379413272342	234
3	1926	123.379413272342	235
3	1926	123.379413272342	236
3	1945	124.577789641743	237
3	1945	124.577789641743	238
3	1945	124.577789641743	239
3	1966	126.083298347159	240
3	1966	126.083298347159	241
3	1966	126.083298347159	242
3	1990	127.648937295146	243
3	1990	127.648937295146	244
3	1990	127.648937295146	245
3	2018	128.719502829327	246
3	2018	128.719502829327	247
3	2018	128.719502829327	248
3	2039	129.746309547201	249
3	2039	129.746309547201	250
3	2039	129.746309547201	251
3	2068	131.750060653369	252
3	2068	131.750060653369	253
3	2068	131.750060653369	254
3	2093	132.877562163594	255
3	2093	132.877562163594	256
3	2093	132.877562163594	257
3	2118	134.325058330343	258
3	2118	134.325058330343	259
3	2118	134.325058330343	260
3	2143	136.18376702026	261
3	2143	136.18376702026	262
3	2143	136.18376702026	263
3	2165	138.087926174468	264
3	2165	138.087926174468	265
3	2165	138.087926174468	266
3	2179	139.959342212934	267
3	2179	139.959342212934	268
3	2179	139.959342212934	269
3	2204	140.999597501335	270
3	2204	140.999597501335	271
3	2204	140.999597501335	272
3	2225	142.959644721641	273
3	2225	142.959644721641	274
3	2225	142.959644721641	275
3	2252	144.446231621897	276
3	2252	144.446231621897	277
3	2252	144.446231621897	278
3	2280	146.409644061265	279
3	2280	146.409644061265	280
3	2280	146.409644061265	281
3	2305	148.000608604039	282
3	2305	148.000608604039	283
3	2305	148.000608604039	284
3	2329	149.507935042397	285
3	2329	149.507935042397	286
3	2329	149.507935042397	287
3	2357	150.580447435037	288
3	2357	150.580447435037	289
3	2357	150.580447435037	290
3	2379	152.060107020034	291
3	2379	152.060107020034	292
3	2379	152.060107020034	293
3	2405	153.894634278168	294
3	2405	153.894634278168	295
3	2405	153.894634278168	296
3	2430	156.579139026319	297
3	2430	156.579139026319	298
3	2430	156.579139026319	299
3	2451	158.373495689433	300
3	2451	158.373495689433	301
3	2451	158.373495689433	302
3	2474	160.36684071494	303
3	2474	160.36684071494	304
3	2474	160.36684071494	305
3	2497	161.726839087855	306
3	2497	161.726839087855	307
3	2497	161.726839087855	308
3	2526	163.075233429266	309
3	2526	163.075233429266	310
3	2526	163.075233429266	311
3	2547	164.734245639126	312
3	2547	164.734245639126	313
3	2547	164.734245639126	314
3	2580	166.669691025776	315
3	2580	166.669691025776	316
3	2580	166.669691025776	317
3	2597	167.759335261408	318
3	2597	167.759335261408	319
3	2597	167.759335261408	320
3	2623	168.773911739303	321
3	2623	168.773911739303	322
3	2623	168.773911739303	323
3	2653	170.672989349367	324
3	2653	170.672989349367	325
3	2653	170.672989349367	326
3	2671	172.643266706085	327
3	2671	172.643266706085	328
3	2671	172.643266706085	329
3	2695	173.81232913188	330
3	2695	173.81232913188	331
3	2695	173.81232913188	332
3	2723	175.507167916406	333
3	2723	175.507167916406	334
3	2723	175.507167916406	335
3	2748	177.244033560356	336
3	2748	177.244033560356	337
3	2748	177.244033560356	338
3	2766	178.898794605105	339
3	2766	178.898794605105	340
3	2766	178.898794605105	341
3	2795	180.136089604057	342
3	2795	180.136089604057	343
3	2795	180.136089604057	344
3	2812	181.186987529134	345
3	2812	181.186987529134	346
3	2812	181.186987529134	347
3	2836	182.649713856185	348
3	2836	182.649713856185	349
3	2836	182.649713856185	350
3	2858	183.934176596518	351
3	2858	183.934176596518	352
3	2858	183.934176596518	353
3	2883	185.211137612759	354
3	2883	185.211137612759	355
3	2883	185.211137612759	356
3	2907	186.653332758773	357
3	2907	186.653332758773	358
3	2907	186.653332758773	359
3	2930	187.715989956663	360
3	2930	187.715989956663	361
3	2930	187.715989956663	362
3	2951	189.014883361135	363
3	2951	189.014883361135	364
3	2951	189.014883361135	365
3	2973	190.446083030562	366
3	2973	190.446083030562	367
3	2973	190.446083030562	368
3	2998	192.388963760241	369
3	2998	192.388963760241	370
3	2998	192.388963760241	371
3	3027	194.153932243374	372
3	3027	194.153932243374	373
3	3027	194.153932243374	374
3	3047	196.142441740604	375
3	3047	196.142441740604	376
3	3047	196.142441740604	377
3	3070	198.131801044261	378
3	3070	198.131801044261	379
3	3070	198.131801044261	380
3	3095	200.039433351536	381
3	3095	200.039433351536	382
3	3095	200.039433351536	383
3	3124	201.527858141998	384
3	3124	201.527858141998	385
3	3124	201.527858141998	386
3	3149	203.508415009993	387
3	3149	203.508415009993	388
3	3149	203.508415009993	389
3	3174	204.941500095404	390
3	3174	204.941500095404	391
3	3174	204.941500095404	392
3	3195	206.32576750778	393
3	3195	206.32576750778	394
3	3195	206.32576750778	395
3	3222	207.430148518649	396
3	3222	207.430148518649	397
3	3222	207.430148518649	398
3	3248	209.020548749842	399
3	3248	209.020548749842	400
3	3248	209.020548749842	401
3	3269	210.130487696283	402
3	3269	210.130487696283	403
3	3269	210.130487696283	404
3	3298	212.09246362825	405
3	3298	212.09246362825	406
3	3298	212.09246362825	407
3	3316	213.881076745615	408
3	3316	213.881076745615	409
3	3316	213.881076745615	410
3	3341	215.361577529165	411
3	3341	215.361577529165	412
3	3341	215.361577529165	413
3	3370	216.479471221344	414
3	3370	216.479471221344	415
3	3370	216.479471221344	416
3	3393	218.134571391621	417
3	3393	218.134571391621	418
3	3393	218.134571391621	419
3	3427	219.771250150158	420
3	3427	219.771250150158	421
3	3427	219.771250150158	422
3	3449	221.284316908242	423
3	3449	221.284316908242	424
3	3449	221.284316908242	425
3	3471	222.877620028919	426
3	3471	222.877620028919	427
3	3471	222.877620028919	428
3	3488	223.996833377292	429
3	3488	223.996833377292	430
3	3488	223.996833377292	431
3	3521	225.845191489862	432
3	3521	225.845191489862	433
3	3521	225.845191489862	434
3	3542	226.847006111558	435
3	3542	226.847006111558	436
3	3542	226.847006111558	437
3	3571	228.573222450025	438
3	3571	228.573222450025	439
3	3571	228.573222450025	440
3	3596	229.941211511769	441
3	3596	229.941211511769	442
3	3596	229.941211511769	443
3	3614	231.577549335497	444
3	3614	231.577549335497	445
3	3614	231.577549335497	446
3	3639	233.580903714992	447
3	3639	233.580903714992	448
3	3639	233.580903714992	449
3	3661	235.375368355228	450
3	3661	235.375368355228	451
3	3661	235.375368355228	452
3	3690	236.675536295169	453
3	3690	236.675536295169	454
3	3690	236.675536295169	455
3	3717	238.600343322971	456
3	3717	238.600343322971	457
3	3717	238.600343322971	458
3	3733	239.798094206162	459
3	3733	239.798094206162	460
3	3733	239.798094206162	461
4	12	0.163252200566	0
4	12	0.163252200566	1
4	12	0.163252200566	2
4	40	1.745730912016	3
4	40	1.745730912016	4
4	40	1.745730912016	5
4	59	3.663496965162	6
4	59	3.663496965162	7
4	59	3.663496965162	8
4	91	5.281189132687	9
4	91	5.281189132687	10
4	91	5.281189132687	11
4	108	7.190301527083	12
4	108	7.190301527083	13
4	108	7.190301527083	14
4	137	8.228848932417	15
4	137	8.228848932417	16
4	137	8.228848932417	17
4	166	9.386821955374	18
4	166	9.386821955374	19
4	166	9.386821955374	20
4	191	12.379234781627	21
4	191	12.379234781627	22
4	191	12.379234781627	23
4	222	14.084307360919	24
4	222	14.084307360919	25
4	222	14.084307360919	26
4	239	15.799525782802	27
4	239	15.799525782802	28
4	239	15.799525782802	29
4	264	17.199052684749	30
4	264	17.199052684749	31
4	264	17.199052684749	32
4	294	18.535773030622	33
4	294	18.535773030622	34
4	294	18.535773030622	35
4	315	20.160074220363	36
4	315	20.160074220363	37
4	315	20.160074220363	38
4	334	22.087272178212	39
4	334	22.087272178212	40
4	334	22.087272178212	41
4	355	24.057107200941	42
4	355	24.057107200941	43
4	355	24.057107200941	44
4	384	25.288664154673	45
4	384	25.288664154673	46
4	384	25.288664154673	47
4	406	26.489294103753	48
4	406	26.489294103753	49
4	406	26.489294103753	50
4	428	28.482588410447	51
4	428	28.482588410447	52
4	428	28.482588410447	53
4	455	30.007049516896	54
4	455	30.007049516896	55
4	455	30.007049516896	56
4	474	30.977579834257	57
4	474	30.977579834257	58
4	474	30.977579834257	59
4	509	32.045057094589	60
4	509	32.045057094589	61
4	509	32.045057094589	62
4	527	33.465196323633	63
4	527	33.465196323633	64
4	527	33.465196323633	65
4	559	35.461277201547	66
4	559	35.461277201547	67
4	559	35.461277201547	68
4	576	37.215432755776	69
4	576	37.215432755776	70
4	576	37.215432755776	71
4	609	38.287318653987	72
4	609	38.287318653987	73
4	609	38.287318653987	74
4	631	41.945439029231	75
4	631	41.945439029231	76
4	631	41.945439029231	77
4	658	43.486861444825	78
4	658	43.486861444825	79
4	658	43.486861444825	80
4	680	44.535568532417	81
4	680	44.535568532417	82
4	680	44.535568532417	83
4	701	46.388564067952	84
4	701	46.388564067952	85
4	701	46.388564067952	86
4	731	47.883712962886	87
4	731	47.883712962886	88
4	731	47.883712962886	89
4	759	49.261617272872	90
4	759	49.261617272872	91
4	759	49.261617272872	92
4	775	50.827327045401	93
4	775	50.827327045401	94
4	775	50.827327045401	95
4	805	52.417254864952	96
4	805	52.417254864952	97
4	805	52.417254864952	98
4	826	53.505333021635	99
4	826	53.505333021635	100
4	826	53.505333021635	101
4	851	55.126338132775	102
4	851	55.126338132775	103
4	851	55.126338132775	104
4	872	56.511593674437	105
4	872	56.511593674437	106
4	872	56.511593674437	107
4	897	57.890413764661	108
4	897	57.890413764661	109
4	897	57.890413764661	110
4	928	59.154043987259	111
4	928	59.154043987259	112
4	928	59.154043987259	113
4	945	60.506359831944	114
4	945	60.506359831944	115
4	945	60.506359831944	116
4	971	61.740549084445	117
4	971	61.740549084445	118
4	971	61.740549084445	119
4	1002	63.426763286425	120
4	1002	63.426763286425	121
4	1002	63.426763286425	122
4	1024	64.987077929641	123
4	1024	64.987077929641	124
4	1024	64.987077929641	125
4	1049	66.898273173573	126
4	1049	66.898273173573	127
4	1049	66.898273173573	128
4	1070	68.532896959316	129
4	1070	68.532896959316	130
4	1070	68.532896959316	131
4	1096	69.576024218257	132
4	1096	69.576024218257	133
4	1096	69.576024218257	134
4	1120	71.537153305174	135
4	1120	71.537153305174	136
4	1120	71.537153305174	137
4	1146	72.612556096893	138
4	1146	72.612556096893	139
4	1146	72.612556096893	140
4	1172	74.30555881012	141
4	1172	74.30555881012	142
4	1172	74.30555881012	143
4	1193	75.543244547476	144
4	1193	75.543244547476	145
4	1193	75.543244547476	146
4	1218	77.431971829803	147
4	1218	77.431971829803	148
4	1218	77.431971829803	149
4	1242	79.385259615023	150
4	1242	79.385259615023	151
4	1242	79.385259615023	152
4	1265	80.95528783002	153
4	1265	80.95528783002	154
4	1265	80.95528783002	155
4	1300	82.072312634346	156
4	1300	82.072312634346	157
4	1300	82.072312634346	158
4	1315	83.984889109682	159
4	1315	83.984889109682	160
4	1315	83.984889109682	161
4	1340	85.945047275919	162
4	1340	85.945047275919	163
4	1340	85.945047275919	164
4	1375	87.639081543353	165
4	1375	87.639081543353	166
4	1375	87.639081543353	167
4	1396	89.512249819323	168
4	1396	89.512249819323	169
4	1396	89.512249819323	170
4	1417	90.475253563679	171
4	1417	90.475253563679	172
4	1417	90.475253563679	173
4	1443	91.77544685151	174
4	1443	91.77544685151	175
4	1443	91.77544685151	176
4	1457	93.09907703498	177
4	1457	93.09907703498	178
4	1457	93.09907703498	179
4	1485	94.966627625168	180
4	1485	94.966627625168	181
4	1485	94.966627625168	182
4	1508	96.832261810826	183
4	1508	96.832261810826	184
4	1508	96.832261810826	185
4	1533	98.12509414587	186
4	1533	98.12509414587	187
4	1533	98.12509414587	188
4	1560	99.791392451235	189
4	1560	99.791392451235	190
4	1560	99.791392451235	191
4	1583	101.097529532726	192
4	1583	101.097529532726	193
4	1583	101.097529532726	194
4	1603	102.88859746568	195
4	1603	102.88859746568	196
4	1603	102.88859746568	197
4	1632	104.114288592149	198
4	1632	104.114288592149	199
4	1632	104.114288592149	200
4	1654	105.789262580426	201
4	1654	105.789262580426	202
4	1654	105.789262580426	203
4	1678	106.841677052019	204
4	1678	106.841677052019	205
4	1678	106.841677052019	206
4	1707	108.437221385055	207
4	1707	108.437221385055	208
4	1707	108.437221385055	209
4	1729	110.025678619011	210
4	1729	110.025678619011	211
4	1729	110.025678619011	212
4	1744	111.882195593406	213
4	1744	111.882195593406	214
4	1744	111.882195593406	215
4	1772	113.762222348162	216
4	1772	113.762222348162	217
4	1772	113.762222348162	218
4	1793	114.949471399925	219
4	1793	114.949471399925	220
4	1793	114.949471399925	221
4	1826	116.526378272541	222
4	1826	116.526378272541	223
4	1826	116.526378272541	224
4	1844	118.243263325604	225
4	1844	118.243263325604	226
4	1844	118.243263325604	227
4	1876	120.034337837569	228
4	1876	120.034337837569	229
4	1876	120.034337837569	230
4	1900	121.661597884382	231
4	1900	121.661597884382	232
4	1900	121.661597884382	233
4	1919	123.359876533131	234
4	1919	123.359876533131	235
4	1919	123.359876533131	236
4	1940	124.558567308547	237
4	1940	124.558567308547	238
4	1940	124.558567308547	239
4	1965	126.078617971535	240
4	1965	126.078617971535	241
4	1965	126.078617971535	242
4	2001	127.700627322142	243
4	2001	127.700627322142	244
4	2001	127.700627322142	245
4	2019	128.720702542798	246
4	2019	128.720702542798	247
4	2019	128.720702542798	248
4	2048	129.771381523633	249
4	2048	129.771381523633	250
4	2048	129.771381523633	251
4	2069	131.751372486682	252
4	2069	131.751372486682	253
4	2069	131.751372486682	254
4	2097	132.89150645522	255
4	2097	132.89150645522	256
4	2097	132.89150645522	257
4	2119	134.33031544741	258
4	2119	134.33031544741	259
4	2119	134.33031544741	260
4	2157	138.06120103787	261
4	2157	138.06120103787	262
4	2157	138.06120103787	263
4	2187	139.973081901475	264
4	2187	139.973081901475	265
4	2187	139.973081901475	266
4	2205	140.999794360513	267
4	2205	140.999794360513	268
4	2205	140.999794360513	269
4	2234	142.97846151147	270
4	2234	142.97846151147	271
4	2234	142.97846151147	272
4	2258	144.459077103849	273
4	2258	144.459077103849	274
4	2258	144.459077103849	275
4	2279	146.407054485018	276
4	2279	146.407054485018	277
4	2279	146.407054485018	278
4	2304	147.992361097008	279
4	2304	147.992361097008	280
4	2304	147.992361097008	281
4	2337	149.560929293835	282
4	2337	149.560929293835	283
4	2337	149.560929293835	284
4	2351	150.562759079384	285
4	2351	150.562759079384	286
4	2351	150.562759079384	287
4	2380	152.06677705124	288
4	2380	152.06677705124	289
4	2380	152.06677705124	290
4	2402	153.884733342374	291
4	2402	153.884733342374	292
4	2402	153.884733342374	293
4	2429	156.576253602374	294
4	2429	156.576253602374	295
4	2429	156.576253602374	296
4	2452	158.376392465592	297
4	2452	158.376392465592	298
4	2452	158.376392465592	299
4	2477	160.370039802731	300
4	2477	160.370039802731	301
4	2477	160.370039802731	302
4	2509	161.759978256695	303
4	2509	161.759978256695	304
4	2509	161.759978256695	305
4	2530	163.104250249856	306
4	2530	163.104250249856	307
4	2530	163.104250249856	308
4	2559	164.772339321626	309
4	2559	164.772339321626	310
4	2559	164.772339321626	311
4	2573	166.646739218989	312
4	2573	166.646739218989	313
4	2573	166.646739218989	314
4	2609	167.788535999963	315
4	2609	167.788535999963	316
4	2609	167.788535999963	317
4	2624	168.778404927737	318
4	2624	168.778404927737	319
4	2624	168.778404927737	320
4	2648	170.654899232953	321
4	2648	170.654899232953	322
4	2648	170.654899232953	323
4	2674	172.65276235278	324
4	2674	172.65276235278	325
4	2674	172.65276235278	326
4	2699	173.815088050663	327
4	2699	173.815088050663	328
4	2699	173.815088050663	329
4	2724	175.509434693915	330
4	2724	175.509434693915	331
4	2724	175.509434693915	332
4	2767	178.902984644229	333
4	2767	178.902984644229	334
4	2767	178.902984644229	335
4	2791	180.125262413913	336
4	2791	180.125262413913	337
4	2791	180.125262413913	338
4	2824	181.240754639924	339
4	2824	181.240754639924	340
4	2824	181.240754639924	341
4	2837	182.650421032333	342
4	2837	182.650421032333	343
4	2837	182.650421032333	344
4	2857	183.930177871199	345
4	2857	183.930177871199	346
4	2857	183.930177871199	347
4	2882	185.205047753477	348
4	2882	185.205047753477	349
4	2882	185.205047753477	350
4	2915	186.722007739725	351
4	2915	186.722007739725	352
4	2915	186.722007739725	353
4	2929	187.712411405058	354
4	2929	187.712411405058	355
4	2929	187.712411405058	356
4	2952	189.015686569423	357
4	2952	189.015686569423	358
4	2952	189.015686569423	359
4	2984	190.477472467267	360
4	2984	190.477472467267	361
4	2984	190.477472467267	362
4	2999	192.392299643463	363
4	2999	192.392299643463	364
4	2999	192.392299643463	365
4	3026	194.153420679243	366
4	3026	194.153420679243	367
4	3026	194.153420679243	368
4	3046	196.136756195611	369
4	3046	196.136756195611	370
4	3046	196.136756195611	371
4	3071	198.133452712355	372
4	3071	198.133452712355	373
4	3071	198.133452712355	374
4	3100	200.049781226657	375
4	3100	200.049781226657	376
4	3100	200.049781226657	377
4	3123	201.526657583585	378
4	3123	201.526657583585	379
4	3123	201.526657583585	380
4	3146	203.506968946175	381
4	3146	203.506968946175	382
4	3146	203.506968946175	383
4	3173	204.934116458996	384
4	3173	204.934116458996	385
4	3173	204.934116458996	386
4	3199	206.333356614362	387
4	3199	206.333356614362	388
4	3199	206.333356614362	389
4	3221	207.424013995743	390
4	3221	207.424013995743	391
4	3221	207.424013995743	392
4	3249	209.025339346096	393
4	3249	209.025339346096	394
4	3249	209.025339346096	395
4	3281	210.162739251438	396
4	3281	210.162739251438	397
4	3281	210.162739251438	398
4	3299	212.097039801812	399
4	3299	212.097039801812	400
4	3299	212.097039801812	401
4	3328	213.916184716886	402
4	3328	213.916184716886	403
4	3328	213.916184716886	404
4	3353	215.412354418706	405
4	3353	215.412354418706	406
4	3353	215.412354418706	407
4	3378	216.530302665187	408
4	3378	216.530302665187	409
4	3378	216.530302665187	410
4	3394	218.141754426079	411
4	3394	218.141754426079	412
4	3394	218.141754426079	413
4	3420	219.74997040897	414
4	3420	219.74997040897	415
4	3420	219.74997040897	416
4	3445	221.263118366937	417
4	3445	221.263118366937	418
4	3445	221.263118366937	419
4	3470	222.873406607085	420
4	3470	222.873406607085	421
4	3470	222.873406607085	422
4	3496	224.035367268588	423
4	3496	224.035367268588	424
4	3496	224.035367268588	425
4	3517	225.834700877464	426
4	3517	225.834700877464	427
4	3517	225.834700877464	428
4	3543	226.847320058191	429
4	3543	226.847320058191	430
4	3543	226.847320058191	431
4	3567	228.558308723334	432
4	3567	228.558308723334	433
4	3567	228.558308723334	434
4	3592	229.92522061204	435
4	3592	229.92522061204	436
4	3592	229.92522061204	437
4	3622	231.630485261817	438
4	3622	231.630485261817	439
4	3622	231.630485261817	440
4	3647	233.616762014638	441
4	3647	233.616762014638	442
4	3647	233.616762014638	443
4	3662	235.376862411865	444
4	3662	235.376862411865	445
4	3662	235.376862411865	446
4	3684	236.659050035933	447
4	3684	236.659050035933	448
4	3684	236.659050035933	449
4	3708	238.57573263493	450
4	3708	238.57573263493	451
4	3708	238.57573263493	452
4	3737	239.812080296757	453
4	3737	239.812080296757	454
4	3737	239.812080296757	455
5	19	0.178088221615	0
5	19	0.178088221615	1
5	48	1.761920206612	2
5	48	1.761920206612	3
5	70	3.675937450069	4
5	70	3.675937450069	5
5	98	5.300549748285	6
5	98	5.300549748285	7
5	118	7.209020685619	8
5	118	7.209020685619	9
5	148	8.276468205262	10
5	148	8.276468205262	11
5	173	9.404229544878	12
5	173	9.404229544878	13
5	226	14.095542627393	14
5	226	14.095542627393	15
5	248	15.817144460515	16
5	248	15.817144460515	17
5	298	18.552107656799	18
5	298	18.552107656799	19
5	341	22.104633489212	20
5	341	22.104633489212	21
5	388	25.307093942427	22
5	388	25.307093942427	23
5	413	26.510669488808	24
5	413	26.510669488808	25
5	438	28.516066848061	26
5	438	28.516066848061	27
5	463	30.038276983435	28
5	463	30.038276983435	29
5	488	31.00752022627	30
5	488	31.00752022627	31
5	513	32.063091012216	32
5	513	32.063091012216	33
5	534	33.484025129083	34
5	534	33.484025129083	35
5	563	35.490178218528	36
5	563	35.490178218528	37
5	581	37.230030668954	38
5	581	37.230030668954	39
5	613	38.298739909101	40
5	613	38.298739909101	41
5	638	41.960203815057	42
5	638	41.960203815057	43
5	666	43.512398899845	44
5	666	43.512398899845	45
5	707	46.406693051564	46
5	707	46.406693051564	47
5	738	47.899269552018	48
5	738	47.899269552018	49
5	763	49.277727848485	50
5	763	49.277727848485	51
5	784	50.843257861374	52
5	784	50.843257861374	53
5	809	52.428220277742	54
5	809	52.428220277742	55
5	832	53.518252482352	56
5	832	53.518252482352	57
5	885	56.556300125242	58
5	885	56.556300125242	59
5	907	57.901533210072	60
5	907	57.901533210072	61
5	935	59.167674775661	62
5	935	59.167674775661	63
5	960	60.530253417013	64
5	960	60.530253417013	65
5	978	61.750743977375	66
5	978	61.750743977375	67
5	1028	65.004630047819	68
5	1028	65.004630047819	69
5	1057	66.916439100461	70
5	1057	66.916439100461	71
5	1075	68.554780250919	72
5	1075	68.554780250919	73
5	1103	69.587047236067	74
5	1103	69.587047236067	75
5	1132	71.58656789202	76
5	1132	71.58656789202	77
5	1179	74.339389492852	78
5	1179	74.339389492852	79
5	1204	75.555164126496	80
5	1204	75.555164126496	81
5	1226	77.450955853467	82
5	1226	77.450955853467	83
5	1250	79.412028962353	84
5	1250	79.412028962353	85
5	1273	80.966535760943	86
5	1273	80.966535760943	87
5	1304	82.087132426442	88
5	1304	82.087132426442	89
5	1322	83.995293689239	90
5	1322	83.995293689239	91
5	1347	85.9557734365	92
5	1347	85.9557734365	93
5	1379	87.650171861989	94
5	1379	87.650171861989	95
5	1401	89.534998333848	96
5	1401	89.534998333848	97
5	1447	91.808050855984	98
5	1447	91.808050855984	99
5	1466	93.113799322466	100
5	1466	93.113799322466	101
5	1489	94.97849212151	102
5	1489	94.97849212151	103
5	1514	96.842275653952	104
5	1514	96.842275653952	105
5	1540	98.146661138767	106
5	1540	98.146661138767	107
5	1568	99.819898307701	108
5	1568	99.819898307701	109
5	1593	101.116970945247	110
5	1593	101.116970945247	111
5	1607	102.90333608147	112
5	1607	102.90333608147	113
5	1640	104.135622474752	114
5	1640	104.135622474752	115
5	1664	105.81225457375	116
5	1664	105.81225457375	117
5	1733	110.03727797505	118
5	1733	110.03727797505	119
5	1755	111.898117341446	120
5	1755	111.898117341446	121
5	1780	113.776730446268	122
5	1780	113.776730446268	123
5	1798	114.963203597209	124
5	1798	114.963203597209	125
5	1833	116.540965625954	126
5	1833	116.540965625954	127
5	1855	118.270799965777	128
5	1855	118.270799965777	129
5	1883	120.046917289862	130
5	1883	120.046917289862	131
5	1908	121.673369528491	132
5	1908	121.673369528491	133
5	1953	124.596562536232	134
5	1953	124.596562536232	135
5	1974	126.100659183136	136
5	1974	126.100659183136	137
5	2005	127.717086641678	138
5	2005	127.717086641678	139
5	2030	128.746549399866	140
5	2030	128.746549399866	141
5	2055	129.783431473374	142
5	2055	129.783431473374	143
5	2076	131.762734052416	144
5	2076	131.762734052416	145
5	2101	132.901646075903	146
5	2101	132.901646075903	147
5	2126	134.340429648275	148
5	2126	134.340429648275	149
5	2161	138.076512213061	150
5	2161	138.076512213061	151
5	2212	141.017113030908	152
5	2212	141.017113030908	153
5	2241	142.996504116448	154
5	2241	142.996504116448	155
5	2263	144.471294940342	156
5	2263	144.471294940342	157
5	2288	146.432516963454	158
5	2288	146.432516963454	159
5	2312	148.018468264196	160
5	2312	148.018468264196	161
5	2341	149.574483959836	162
5	2341	149.574483959836	163
5	2366	150.6016954791	164
5	2366	150.6016954791	165
5	2388	152.076777656958	166
5	2388	152.076777656958	167
5	2413	153.905317640458	168
5	2413	153.905317640458	169
5	2488	160.41359104736	170
5	2488	160.41359104736	171
5	2513	161.775383190615	172
5	2513	161.775383190615	173
5	2535	163.118699022839	174
5	2535	163.118699022839	175
5	2563	164.793582497582	176
5	2563	164.793582497582	177
5	2578	166.660762951102	178
5	2578	166.660762951102	179
5	2613	167.808241893961	180
5	2613	167.808241893961	181
5	2660	170.697293214149	182
5	2660	170.697293214149	183
5	2682	172.664948567536	184
5	2682	172.664948567536	185
5	2707	173.841711274534	186
5	2707	173.841711274534	187
5	2735	175.539336562721	188
5	2735	175.539336562721	189
5	2774	178.917213655387	190
5	2774	178.917213655387	191
5	2796	180.136959606212	192
5	2796	180.136959606212	193
5	2891	185.227235286438	194
5	2891	185.227235286438	195
5	2941	187.757614693216	196
5	2941	187.757614693216	197
5	2988	190.500183181878	198
5	2988	190.500183181878	199
5	3006	192.40911074765	200
5	3006	192.40911074765	201
5	3053	196.148385500505	202
5	3053	196.148385500505	203
5	3078	198.14588565917	204
5	3078	198.14588565917	205
5	3107	200.065133375269	206
5	3107	200.065133375269	207
5	3132	201.543229674666	208
5	3132	201.543229674666	209
5	3156	203.519950603789	210
5	3156	203.519950603789	211
5	3181	204.953471978521	212
5	3181	204.953471978521	213
5	3210	206.372014583177	214
5	3210	206.372014583177	215
5	3229	207.439075024558	216
5	3229	207.439075024558	217
5	3257	209.054006192809	218
5	3257	209.054006192809	219
5	3285	210.180078630425	220
5	3285	210.180078630425	221
5	3332	213.941361900581	222
5	3332	213.941361900581	223
5	3357	215.422807028426	224
5	3357	215.422807028426	225
5	3382	216.551318203084	226
5	3382	216.551318203084	227
5	3403	218.159757280755	228
5	3403	218.159757280755	229
5	3424	219.760007575683	230
5	3424	219.760007575683	231
5	3453	221.295961381564	232
5	3453	221.295961381564	233
5	3501	224.047319356818	234
5	3501	224.047319356818	235
5	3523	225.849322058053	236
5	3523	225.849322058053	237
5	3550	226.859197485012	238
5	3550	226.859197485012	239
5	3573	228.58292939284	240
5	3573	228.58292939284	241
5	3626	231.643163584158	242
5	3626	231.643163584158	243
5	3669	235.3939105341	244
5	3669	235.3939105341	245
5	3692	236.684152928967	246
5	3692	236.684152928967	247
5	3713	238.59282283313	248
5	3713	238.59282283313	249
5	3748	239.831449609306	250
5	3748	239.831449609306	251
6	21	0.188088221615	0
6	25	0.198941161742	1
6	50	1.771920206612	2
6	75	3.685937450069	3
6	100	5.310549748285	4
6	123	7.215652173854	5
6	125	7.219020685619	6
6	147	8.260287771867	7
6	165	9.386158981359	8
6	175	9.414229544878	9
6	203	12.401855266592	10
6	221	14.078250084598	11
6	228	14.105542627393	12
6	251	15.822146355219	13
6	253	15.827144460515	14
6	275	17.223422964887	15
6	293	18.523118907761	16
6	337	22.09476282786	17
6	343	22.114633489212	18
6	365	24.086822022522	19
6	390	25.317093942427	20
6	409	26.494534339593	21
6	415	26.520669488808	22
6	437	28.512966911202	23
6	440	28.526066848061	24
6	462	30.028015950661	25
6	465	30.048276983435	26
6	487	30.998830160156	27
6	490	31.01752022627	28
6	536	33.494025129083	29
6	540	33.526614416526	30
6	558	35.458639246844	31
6	565	35.500178218528	32
6	586	37.240030668954	33
6	615	38.308739909101	34
6	643	41.970203815057	35
6	665	43.512136103025	36
6	668	43.522398899845	37
6	710	46.410306019556	38
6	715	46.416693051564	39
6	734	47.891132745222	40
6	740	47.909269552018	41
6	758	49.254617016511	42
6	765	49.287727848485	43
6	787	50.853257861374	44
6	790	50.860335419676	45
6	812	52.438220277742	46
6	838	53.526737778805	47
6	840	53.528252482352	48
6	862	55.161627521482	49
6	884	56.541283220824	50
6	887	56.566300125242	51
6	912	57.911533210072	52
6	931	59.154592181441	53
6	937	59.177674775661	54
6	983	61.760743977375	55
6	987	61.799458185349	56
6	1009	63.447650028424	57
6	1030	65.014630047819	58
6	1034	65.036029105811	59
6	1056	66.909103586799	60
6	1079	68.564043069346	61
6	1106	69.597047236067	62
6	1109	69.60185881998	63
6	1131	71.577693830013	64
6	1134	71.59656789202	65
6	1156	72.628616323452	66
6	1175	74.312723966276	67
6	1181	74.349389492852	68
6	1203	75.554428324359	69
6	1229	77.451586325471	70
6	1231	77.460955853467	71
6	1256	79.442651099803	72
6	1276	80.976419563344	73
6	1278	80.976535760943	74
6	1352	85.9657734365	75
6	1381	87.660171861989	76
6	1449	91.818050855984	77
6	1470	93.123616949447	78
6	1491	94.98849212151	79
6	1499	95.051521577856	80
6	1517	96.852275653952	81
6	1524	96.877358667853	82
6	1592	101.110811018517	83
6	1595	101.126970945247	84
6	1609	102.91333608147	85
6	1613	102.925171410887	86
6	1666	105.82225457375	87
6	1688	106.860616381596	88
6	1706	108.425840224098	89
6	1728	110.017098393885	90
6	1758	111.907870919244	91
6	1760	111.908117341446	92
6	1783	113.782247648687	93
6	1785	113.786730446268	94
6	1810	114.991419070413	95
6	1829	116.530313268996	96
6	1835	116.550965625954	97
6	1860	118.280799965777	98
6	1874	120.032701643434	99
6	1910	121.683369528491	100
6	1948	124.585625828498	101
6	1957	124.606562536232	102
6	1977	126.103095454283	103
6	2000	127.677803816492	104
6	2007	127.727086641678	105
6	2029	128.741031455496	106
6	2032	128.756549399866	107
6	2051	129.776515572048	108
6	2082	131.795468087741	109
6	2103	132.911646075903	110
6	2107	132.932366477798	111
6	2129	134.350429648275	112
6	2168	138.088100323588	113
6	2190	139.979982648115	114
6	2215	141.027113030908	115
6	2218	141.03445689817	116
6	2243	143.006504116448	117
6	2266	144.480562827716	118
6	2268	144.481294940342	119
6	2314	148.028468264196	120
6	2318	148.043499138627	121
6	2336	149.542452227632	122
6	2391	152.083341316788	123
6	2393	152.086777656958	124
6	2418	153.915317640458	125
6	2441	156.597859738454	126
6	2487	160.393050519554	127
6	2490	160.42359104736	128
6	2505	161.7549425092	129
6	2515	161.785383190615	130
6	2538	163.12188741529	131
6	2540	163.128699022839	132
6	2565	164.803582497582	133
6	2583	166.670600643243	134
6	2585	166.670762951102	135
6	2615	167.818241893961	136
6	2635	168.79640692618	137
6	2662	170.707293214149	138
6	2687	172.674948567536	139
6	2734	175.535006354692	140
6	2737	175.549336562721	141
6	2755	177.264908672022	142
6	2777	178.927213655387	143
6	2802	180.146959606212	144
6	2823	181.208600665306	145
6	2849	182.674226920297	146
6	2868	183.957688180804	147
6	2894	185.228400879906	148
6	2896	185.237235286438	149
6	2940	187.754503350819	150
6	2943	187.767614693216	151
6	2963	189.036830567993	152
6	2983	190.477324112298	153
6	3009	192.41911074765	154
6	3015	192.438837926567	155
6	3037	194.176805403565	156
6	3059	196.158385500505	157
6	3062	196.164927063818	158
6	3080	198.15588565917	159
6	3085	198.167888697403	160
6	3110	200.070862593788	161
6	3135	201.553098961157	162
6	3137	201.553229674666	163
6	3158	203.529950603789	164
6	3162	203.543728853589	165
6	3183	204.963471978521	166
6	3187	204.978704639392	167
6	3212	206.382014583177	168
6	3260	209.058630878938	169
6	3262	209.064006192809	170
6	3277	210.15156099039	171
6	3287	210.190078630425	172
6	3309	212.124554243482	173
6	3327	213.905717673325	174
6	3334	213.951361900581	175
6	3349	215.386313934362	176
6	3359	215.432807028426	177
6	3377	216.515715486817	178
6	3384	216.561318203084	179
6	3434	219.788618720361	180
6	3481	222.902346252344	181
6	3504	224.055699935195	182
6	3506	224.057319356818	183
6	3529	225.856888619162	184
6	3553	226.869197485012	185
6	3579	228.586938132934	186
6	3581	228.59292939284	187
6	3603	229.97469276978	188
6	3621	231.61828653686	189
6	3628	231.653163584158	190
6	3646	233.602553015983	191
6	3671	235.4039105341	192
6	3675	235.415160552305	193
6	3698	236.685794253098	194
6	3720	238.60282283313	195
6	3750	239.841449609306	196
7	22	0.188941161742	0
7	22	0.188941161742	1
7	22	0.188941161742	2
7	41	1.745960192352	3
7	41	1.745960192352	4
7	41	1.745960192352	5
7	66	3.674949745435	6
7	66	3.674949745435	7
7	66	3.674949745435	8
7	90	5.274328562523	9
7	90	5.274328562523	10
7	90	5.274328562523	11
7	117	7.205652173854	12
7	117	7.205652173854	13
7	117	7.205652173854	14
7	144	8.250287771867	15
7	144	8.250287771867	16
7	144	8.250287771867	17
7	161	9.376158981359	18
7	161	9.376158981359	19
7	161	9.376158981359	20
7	200	12.391855266592	21
7	200	12.391855266592	22
7	200	12.391855266592	23
7	215	14.068250084598	24
7	215	14.068250084598	25
7	215	14.068250084598	26
7	247	15.812146355219	27
7	247	15.812146355219	28
7	247	15.812146355219	29
7	269	17.213422964887	30
7	269	17.213422964887	31
7	269	17.213422964887	32
7	290	18.513118907761	33
7	290	18.513118907761	34
7	290	18.513118907761	35
7	333	22.08476282786	36
7	333	22.08476282786	37
7	333	22.08476282786	38
7	362	24.076822022522	39
7	362	24.076822022522	40
7	362	24.076822022522	41
7	380	25.269948874253	42
7	380	25.269948874253	43
7	380	25.269948874253	44
7	405	26.484534339593	45
7	405	26.484534339593	46
7	405	26.484534339593	47
7	434	28.502966911202	48
7	434	28.502966911202	49
7	434	28.502966911202	50
7	459	30.018015950661	51
7	459	30.018015950661	52
7	459	30.018015950661	53
7	481	30.988830160156	54
7	481	30.988830160156	55
7	481	30.988830160156	56
7	505	32.031295581194	57
7	505	32.031295581194	58
7	505	32.031295581194	59
7	537	33.516614416526	60
7	537	33.516614416526	61
7	537	33.516614416526	62
7	555	35.448639246844	63
7	555	35.448639246844	64
7	555	35.448639246844	65
7	580	37.226905006149	66
7	580	37.226905006149	67
7	580	37.226905006149	68
7	601	38.273266825164	69
7	601	38.273266825164	70
7	601	38.273266825164	71
7	632	41.950685477633	72
7	632	41.950685477633	73
7	632	41.950685477633	74
7	662	43.502136103025	75
7	662	43.502136103025	76
7	662	43.502136103025	77
7	687	44.546479144093	78
7	687	44.546479144093	79
7	687	44.546479144093	80
7	705	46.400306019556	81
7	705	46.400306019556	82
7	705	46.400306019556	83
7	730	47.881132745222	84
7	730	47.881132745222	85
7	730	47.881132745222	86
7	755	49.244617016511	87
7	755	49.244617016511	88
7	755	49.244617016511	89
7	785	50.850335419676	90
7	785	50.850335419676	91
7	785	50.850335419676	92
7	810	52.430975105834	93
7	810	52.430975105834	94
7	810	52.430975105834	95
7	831	53.516737778805	96
7	831	53.516737778805	97
7	831	53.516737778805	98
7	859	55.151627521482	99
7	859	55.151627521482	100
7	859	55.151627521482	101
7	881	56.531283220824	102
7	881	56.531283220824	103
7	881	56.531283220824	104
7	903	57.896042374634	105
7	903	57.896042374634	106
7	903	57.896042374634	107
7	924	59.144592181441	108
7	924	59.144592181441	109
7	924	59.144592181441	110
7	954	60.518393731697	111
7	954	60.518393731697	112
7	954	60.518393731697	113
7	984	61.789458185349	114
7	984	61.789458185349	115
7	984	61.789458185349	116
7	1006	63.437650028424	117
7	1006	63.437650028424	118
7	1006	63.437650028424	119
7	1031	65.026029105811	120
7	1031	65.026029105811	121
7	1031	65.026029105811	122
7	1050	66.899103586799	123
7	1050	66.899103586799	124
7	1050	66.899103586799	125
7	1074	68.554043069346	126
7	1074	68.554043069346	127
7	1074	68.554043069346	128
7	1104	69.59185881998	129
7	1104	69.59185881998	130
7	1104	69.59185881998	131
7	1128	71.567693830013	132
7	1128	71.567693830013	133
7	1128	71.567693830013	134
7	1150	72.618616323452	135
7	1150	72.618616323452	136
7	1150	72.618616323452	137
7	1171	74.302723966276	138
7	1171	74.302723966276	139
7	1171	74.302723966276	140
7	1197	75.544428324359	141
7	1197	75.544428324359	142
7	1197	75.544428324359	143
7	1222	77.441586325471	144
7	1222	77.441586325471	145
7	1222	77.441586325471	146
7	1253	79.432651099803	147
7	1253	79.432651099803	148
7	1253	79.432651099803	149
7	1272	80.966419563344	150
7	1272	80.966419563344	151
7	1272	80.966419563344	152
7	1292	82.039410062147	153
7	1292	82.039410062147	154
7	1292	82.039410062147	155
7	1323	84.0002751108	156
7	1323	84.0002751108	157
7	1323	84.0002751108	158
7	1353	85.972329869649	159
7	1353	85.972329869649	160
7	1353	85.972329869649	161
7	1368	87.626749738633	162
7	1368	87.626749738633	163
7	1368	87.626749738633	164
7	1400	89.532285063202	165
7	1400	89.532285063202	166
7	1400	89.532285063202	167
7	1425	90.50688344308	168
7	1425	90.50688344308	169
7	1425	90.50688344308	170
7	1465	93.113616949447	171
7	1465	93.113616949447	172
7	1465	93.113616949447	173
7	1496	95.041521577856	174
7	1496	95.041521577856	175
7	1496	95.041521577856	176
7	1521	96.867358667853	177
7	1521	96.867358667853	178
7	1521	96.867358667853	179
7	1539	98.137721699969	180
7	1539	98.137721699969	181
7	1539	98.137721699969	182
7	1584	101.100811018517	183
7	1584	101.100811018517	184
7	1584	101.100811018517	185
7	1610	102.915171410887	186
7	1610	102.915171410887	187
7	1610	102.915171410887	188
7	1639	104.131918435495	189
7	1639	104.131918435495	190
7	1639	104.131918435495	191
7	1682	106.850616381596	192
7	1682	106.850616381596	193
7	1682	106.850616381596	194
7	1703	108.415840224098	195
7	1703	108.415840224098	196
7	1703	108.415840224098	197
7	1725	110.007098393885	198
7	1725	110.007098393885	199
7	1725	110.007098393885	200
7	1754	111.897870919244	201
7	1754	111.897870919244	202
7	1754	111.897870919244	203
7	1779	113.772247648687	204
7	1779	113.772247648687	205
7	1779	113.772247648687	206
7	1805	114.981419070413	207
7	1805	114.981419070413	208
7	1805	114.981419070413	209
7	1822	116.520313268996	210
7	1822	116.520313268996	211
7	1822	116.520313268996	212
7	1854	118.266194044983	213
7	1854	118.266194044983	214
7	1854	118.266194044983	215
7	1871	120.022701643434	216
7	1871	120.022701643434	217
7	1871	120.022701643434	218
7	1901	121.663291775432	219
7	1901	121.663291775432	220
7	1901	121.663291775432	221
7	1925	123.376019335917	222
7	1925	123.376019335917	223
7	1925	123.376019335917	224
7	1944	124.575625828498	225
7	1944	124.575625828498	226
7	1944	124.575625828498	227
7	1970	126.093095454283	228
7	1970	126.093095454283	229
7	1970	126.093095454283	230
7	1997	127.667803816492	231
7	1997	127.667803816492	232
7	1997	127.667803816492	233
7	2026	128.731031455496	234
7	2026	128.731031455496	235
7	2026	128.731031455496	236
7	2047	129.766515572048	237
7	2047	129.766515572048	238
7	2047	129.766515572048	239
7	2079	131.785468087741	240
7	2079	131.785468087741	241
7	2079	131.785468087741	242
7	2104	132.922366477798	243
7	2104	132.922366477798	244
7	2104	132.922366477798	245
7	2127	134.346623338005	246
7	2127	134.346623338005	247
7	2127	134.346623338005	248
7	2162	138.078100323588	249
7	2162	138.078100323588	250
7	2162	138.078100323588	251
7	2184	139.969982648115	252
7	2184	139.969982648115	253
7	2184	139.969982648115	254
7	2213	141.02445689817	255
7	2213	141.02445689817	256
7	2213	141.02445689817	257
7	2230	142.972693681584	258
7	2230	142.972693681584	259
7	2230	142.972693681584	260
7	2262	144.470562827716	261
7	2262	144.470562827716	262
7	2262	144.470562827716	263
7	2287	146.423917156593	264
7	2287	146.423917156593	265
7	2287	146.423917156593	266
7	2315	148.033499138627	267
7	2315	148.033499138627	268
7	2315	148.033499138627	269
7	2333	149.532452227632	270
7	2333	149.532452227632	271
7	2333	149.532452227632	272
7	2355	150.574215679366	273
7	2355	150.574215679366	274
7	2355	150.574215679366	275
7	2384	152.073341316788	276
7	2384	152.073341316788	277
7	2384	152.073341316788	278
7	2409	153.898953696246	279
7	2409	153.898953696246	280
7	2409	153.898953696246	281
7	2434	156.587859738454	282
7	2434	156.587859738454	283
7	2434	156.587859738454	284
7	2462	158.404422854646	285
7	2462	158.404422854646	286
7	2462	158.404422854646	287
7	2484	160.383050519554	288
7	2484	160.383050519554	289
7	2484	160.383050519554	290
7	2501	161.7449425092	291
7	2501	161.7449425092	292
7	2501	161.7449425092	293
7	2531	163.11188741529	294
7	2531	163.11188741529	295
7	2531	163.11188741529	296
7	2555	164.760023450768	297
7	2555	164.760023450768	298
7	2555	164.760023450768	299
7	2577	166.660600643243	300
7	2577	166.660600643243	301
7	2577	166.660600643243	302
7	2605	167.772820432523	303
7	2605	167.772820432523	304
7	2605	167.772820432523	305
7	2628	168.78640692618	306
7	2628	168.78640692618	307
7	2628	168.78640692618	308
7	2652	170.665572619652	309
7	2652	170.665572619652	310
7	2652	170.665572619652	311
7	2678	172.65643172134	312
7	2678	172.65643172134	313
7	2678	172.65643172134	314
7	2706	173.831840597016	315
7	2706	173.831840597016	316
7	2706	173.831840597016	317
7	2731	175.525006354692	318
7	2731	175.525006354692	319
7	2731	175.525006354692	320
7	2752	177.254908672022	321
7	2752	177.254908672022	322
7	2752	177.254908672022	323
7	2775	178.920767683105	324
7	2775	178.920767683105	325
7	2775	178.920767683105	326
7	2797	180.145802639284	327
7	2797	180.145802639284	328
7	2797	180.145802639284	329
7	2817	181.198600665306	330
7	2817	181.198600665306	331
7	2817	181.198600665306	332
7	2846	182.664226920297	333
7	2846	182.664226920297	334
7	2846	182.664226920297	335
7	2865	183.947688180804	336
7	2865	183.947688180804	337
7	2865	183.947688180804	338
7	2887	185.218400879906	339
7	2887	185.218400879906	340
7	2887	185.218400879906	341
7	2911	186.682175650066	342
7	2911	186.682175650066	343
7	2911	186.682175650066	344
7	2937	187.744503350819	345
7	2937	187.744503350819	346
7	2937	187.744503350819	347
7	2959	189.026830567993	348
7	2959	189.026830567993	349
7	2959	189.026830567993	350
7	2980	190.467324112298	351
7	2980	190.467324112298	352
7	2980	190.467324112298	353
7	3012	192.428837926567	354
7	3012	192.428837926567	355
7	3012	192.428837926567	356
7	3034	194.166805403565	357
7	3034	194.166805403565	358
7	3034	194.166805403565	359
7	3057	196.154927063818	360
7	3057	196.154927063818	361
7	3057	196.154927063818	362
7	3081	198.157888697403	363
7	3081	198.157888697403	364
7	3081	198.157888697403	365
7	3106	200.060862593788	366
7	3106	200.060862593788	367
7	3106	200.060862593788	368
7	3131	201.543098961157	369
7	3131	201.543098961157	370
7	3131	201.543098961157	371
7	3159	203.533728853589	372
7	3159	203.533728853589	373
7	3159	203.533728853589	374
7	3184	204.968704639392	375
7	3184	204.968704639392	376
7	3184	204.968704639392	377
7	3203	206.337750875402	378
7	3203	206.337750875402	379
7	3203	206.337750875402	380
7	3228	207.438887685906	381
7	3228	207.438887685906	382
7	3228	207.438887685906	383
7	3256	209.048630878938	384
7	3256	209.048630878938	385
7	3256	209.048630878938	386
7	3273	210.14156099039	387
7	3273	210.14156099039	388
7	3273	210.14156099039	389
7	3306	212.114554243482	390
7	3306	212.114554243482	391
7	3306	212.114554243482	392
7	3324	213.895717673325	393
7	3324	213.895717673325	394
7	3324	213.895717673325	395
7	3345	215.376313934362	396
7	3345	215.376313934362	397
7	3345	215.376313934362	398
7	3374	216.505715486817	399
7	3374	216.505715486817	400
7	3374	216.505715486817	401
7	3404	218.167664995273	402
7	3404	218.167664995273	403
7	3404	218.167664995273	404
7	3428	219.778618720361	405
7	3428	219.778618720361	406
7	3428	219.778618720361	407
7	3454	221.296141022855	408
7	3454	221.296141022855	409
7	3454	221.296141022855	410
7	3478	222.892346252344	411
7	3478	222.892346252344	412
7	3478	222.892346252344	413
7	3500	224.045699935195	414
7	3500	224.045699935195	415
7	3500	224.045699935195	416
7	3522	225.846888619162	417
7	3522	225.846888619162	418
7	3522	225.846888619162	419
7	3551	226.860286618611	420
7	3551	226.860286618611	421
7	3551	226.860286618611	422
7	3572	228.576938132934	423
7	3572	228.576938132934	424
7	3572	228.576938132934	425
7	3600	229.96469276978	426
7	3600	229.96469276978	427
7	3600	229.96469276978	428
7	3618	231.60828653686	429
7	3618	231.60828653686	430
7	3618	231.60828653686	431
7	3643	233.592553015983	432
7	3643	233.592553015983	433
7	3643	233.592553015983	434
7	3672	235.405160552305	435
7	3672	235.405160552305	436
7	3672	235.405160552305	437
7	3691	236.675794253098	438
7	3691	236.675794253098	439
7	3691	236.675794253098	440
7	3712	238.586920635816	441
7	3712	238.586920635816	442
7	3712	238.586920635816	443
7	3738	239.816950329127	444
7	3738	239.816950329127	445
7	3738	239.816950329127	446

