version 2
run General-3-20230921-22:34:24-7056
attr configname General
attr datetime 20230921-22:34:24
attr experiment General
attr inifile omnetpp.ini
attr iterationvars ""
attr iterationvarsf ""
attr measurement ""
attr network Network3
attr processid 7056
attr repetition 3
attr replication #3
attr resultdir results
attr runnumber 3
attr seedset 3
param Network3.node[*].transmissionTime "uniform(1s, 2s)"
param Network3.node[*].delayTime "uniform(0.01s, 0.2s)"
param Network3.node[*].processingTime exponential(0.01s)
param Network3.node[0].lossProbability 0
param Network3.node[1].lossProbability 0.1
param Network3.node[2].lossProbability 0.1
param Network3.node[3].lossProbability "0.1 / 2"
param Network3.node[4].lossProbability "0.1 / 2"
param Network3.node[6].lossProbability "0.1 * 2"
param Network3.node[7].lossProbability "0.1 * 2"
param Network3.node[5].lossProbability "0.1 * 3"

vector 0 Network3.node[0] txVector ETV
vector 1 Network3.node[2] txVector ETV
vector 2 Network3.node[1] txVector ETV
vector 3 Network3.node[4] txVector ETV
vector 4 Network3.node[7] txVector ETV
vector 5 Network3.node[5] rxVector ETV
vector 6 Network3.node[3] txVector ETV
vector 7 Network3.node[6] txVector ETV
0	1	0.114651601831	0
0	1	0.114651601831	1
0	23	1.185376482154	2
0	23	1.185376482154	3
0	48	2.638548781699	4
0	48	2.638548781699	5
0	70	4.183197794319	6
0	70	4.183197794319	7
0	95	5.275414805696	8
0	95	5.275414805696	9
0	120	7.086642562016	10
0	120	7.086642562016	11
0	145	8.46024268081	12
0	145	8.46024268081	13
0	166	9.96581673862	14
0	166	9.96581673862	15
0	191	11.917917983677	16
0	191	11.917917983677	17
0	216	13.703648317909	18
0	216	13.703648317909	19
0	238	15.631584667904	20
0	238	15.631584667904	21
0	263	16.680693592947	22
0	263	16.680693592947	23
0	285	17.899091494806	24
0	285	17.899091494806	25
0	307	19.746813448915	26
0	307	19.746813448915	27
0	332	21.243478403497	28
0	332	21.243478403497	29
0	335	23.11565791776	30
0	335	23.11565791776	31
0	360	25.044156764239	32
0	360	25.044156764239	33
0	382	27.009450116265	34
0	382	27.009450116265	35
0	404	28.165712543135	36
0	404	28.165712543135	37
0	429	29.704505205225	38
0	429	29.704505205225	39
0	439	30.829126955313	40
0	439	30.829126955313	41
0	464	32.771041318844	42
0	464	32.771041318844	43
0	486	33.998754216894	44
0	486	33.998754216894	45
0	511	35.416021113587	46
0	511	35.416021113587	47
0	536	36.75020408521	48
0	536	36.75020408521	49
0	546	38.677733361559	50
0	546	38.677733361559	51
0	571	39.734605933843	52
0	571	39.734605933843	53
0	593	41.152828741191	54
0	593	41.152828741191	55
0	618	42.944019489992	56
0	618	42.944019489992	57
0	643	44.478995069466	58
0	643	44.478995069466	59
0	665	46.435018225643	60
0	665	46.435018225643	61
0	690	47.940202694456	62
0	690	47.940202694456	63
0	712	49.493635529489	64
0	712	49.493635529489	65
0	737	50.958172506955	66
0	737	50.958172506955	67
0	762	52.018986165127	68
0	762	52.018986165127	69
0	787	53.924251066124	70
0	787	53.924251066124	71
0	812	55.299313181847	72
0	812	55.299313181847	73
0	834	57.172820283867	74
0	834	57.172820283867	75
0	859	58.628246854826	76
0	859	58.628246854826	77
0	884	59.897477625472	78
0	884	59.897477625472	79
0	906	61.595206071458	80
0	906	61.595206071458	81
0	927	62.703057167654	82
0	927	62.703057167654	83
0	949	64.36778448622	84
0	949	64.36778448622	85
0	974	66.328648704638	86
0	974	66.328648704638	87
0	999	67.493123631294	88
0	999	67.493123631294	89
0	1021	68.92856152409	90
0	1021	68.92856152409	91
0	1046	70.605834780329	92
0	1046	70.605834780329	93
0	1071	72.299519246978	94
0	1071	72.299519246978	95
0	1096	73.904437141096	96
0	1096	73.904437141096	97
0	1118	75.864075707573	98
0	1118	75.864075707573	99
0	1132	77.527102455332	100
0	1132	77.527102455332	101
0	1154	79.160321034792	102
0	1154	79.160321034792	103
0	1179	81.036980533342	104
0	1179	81.036980533342	105
0	1204	82.70935371944	106
0	1204	82.70935371944	107
0	1229	83.977120901991	108
0	1229	83.977120901991	109
0	1254	85.653367712928	110
0	1254	85.653367712928	111
0	1276	87.009019384926	112
0	1276	87.009019384926	113
0	1298	88.860383464323	114
0	1298	88.860383464323	115
0	1320	90.313368143348	116
0	1320	90.313368143348	117
0	1341	91.721510212703	118
0	1341	91.721510212703	119
0	1366	93.544549400753	120
0	1366	93.544549400753	121
0	1391	94.83235476685	122
0	1391	94.83235476685	123
0	1413	96.169611418222	124
0	1413	96.169611418222	125
0	1419	97.592682838741	126
0	1419	97.592682838741	127
0	1444	99.134883027592	128
0	1444	99.134883027592	129
0	1466	100.703704103197	130
0	1466	100.703704103197	131
0	1491	102.32450629894	132
0	1491	102.32450629894	133
0	1513	104.228999174967	134
0	1513	104.228999174967	135
0	1535	105.261690520051	136
0	1535	105.261690520051	137
0	1560	106.734975187409	138
0	1560	106.734975187409	139
0	1585	108.250832654371	140
0	1585	108.250832654371	141
0	1607	109.424042018664	142
0	1607	109.424042018664	143
0	1632	110.815693299587	144
0	1632	110.815693299587	145
0	1657	112.105174393927	146
0	1657	112.105174393927	147
0	1682	113.699370101861	148
0	1682	113.699370101861	149
0	1704	115.461652268025	150
0	1704	115.461652268025	151
0	1722	116.484350655063	152
0	1722	116.484350655063	153
0	1747	117.538917457753	154
0	1747	117.538917457753	155
0	1772	119.248780591249	156
0	1772	119.248780591249	157
0	1797	120.828437268104	158
0	1797	120.828437268104	159
0	1822	122.447816323557	160
0	1822	122.447816323557	161
0	1847	124.344320730141	162
0	1847	124.344320730141	163
0	1872	126.227491157197	164
0	1872	126.227491157197	165
0	1897	127.393968580125	166
0	1897	127.393968580125	167
0	1922	129.067744154317	168
0	1922	129.067744154317	169
0	1947	130.268580890793	170
0	1947	130.268580890793	171
0	1972	131.823628711348	172
0	1972	131.823628711348	173
0	1997	133.08823483118	174
0	1997	133.08823483118	175
0	2022	134.936901555929	176
0	2022	134.936901555929	177
0	2047	136.701563205637	178
0	2047	136.701563205637	179
0	2072	138.422008972682	180
0	2072	138.422008972682	181
0	2097	139.506778504301	182
0	2097	139.506778504301	183
0	2122	140.780276943298	184
0	2122	140.780276943298	185
0	2144	142.677939278373	186
0	2144	142.677939278373	187
0	2169	144.384941671576	188
0	2169	144.384941671576	189
0	2191	145.408981140304	190
0	2191	145.408981140304	191
0	2212	147.077533391604	192
0	2212	147.077533391604	193
0	2237	148.991334797416	194
0	2237	148.991334797416	195
0	2262	150.25707661926	196
0	2262	150.25707661926	197
0	2287	151.734354222028	198
0	2287	151.734354222028	199
0	2312	153.321956896291	200
0	2312	153.321956896291	201
0	2334	154.400855546187	202
0	2334	154.400855546187	203
0	2359	156.359513161772	204
0	2359	156.359513161772	205
0	2381	158.089793147354	206
0	2381	158.089793147354	207
0	2403	159.100499345989	208
0	2403	159.100499345989	209
0	2428	161.045878039275	210
0	2428	161.045878039275	211
0	2453	162.313306894454	212
0	2453	162.313306894454	213
0	2478	163.9995087011	214
0	2478	163.9995087011	215
0	2503	165.93403583539	216
0	2503	165.93403583539	217
0	2528	167.391691251726	218
0	2528	167.391691251726	219
0	2553	169.270735000095	220
0	2553	169.270735000095	221
0	2571	170.909329332013	222
0	2571	170.909329332013	223
0	2596	171.936536420437	224
0	2596	171.936536420437	225
0	2621	173.333151632755	226
0	2621	173.333151632755	227
0	2624	175.144537153489	228
0	2624	175.144537153489	229
0	2649	176.915628710364	230
0	2649	176.915628710364	231
0	2671	178.398319561568	232
0	2671	178.398319561568	233
0	2693	179.604687166934	234
0	2693	179.604687166934	235
0	2718	180.841105636976	236
0	2718	180.841105636976	237
0	2740	182.392959841828	238
0	2740	182.392959841828	239
0	2759	183.766557429287	240
0	2759	183.766557429287	241
0	2784	185.500068253673	242
0	2784	185.500068253673	243
0	2806	186.724850884241	244
0	2806	186.724850884241	245
0	2831	188.604932419092	246
0	2831	188.604932419092	247
0	2853	189.778795921777	248
0	2853	189.778795921777	249
0	2878	191.662348970606	250
0	2878	191.662348970606	251
0	2903	193.550745137802	252
0	2903	193.550745137802	253
0	2928	195.096323263433	254
0	2928	195.096323263433	255
0	2953	196.161053017082	256
0	2953	196.161053017082	257
0	2975	197.30798860064	258
0	2975	197.30798860064	259
0	3000	198.373922258683	260
0	3000	198.373922258683	261
0	3025	199.625875240492	262
0	3025	199.625875240492	263
0	3047	200.688005325685	264
0	3047	200.688005325685	265
0	3072	202.153761459117	266
0	3072	202.153761459117	267
0	3097	203.728518965489	268
0	3097	203.728518965489	269
0	3122	205.07115443826	270
0	3122	205.07115443826	271
0	3147	206.771676417508	272
0	3147	206.771676417508	273
0	3172	208.043429366381	274
0	3172	208.043429366381	275
0	3197	209.345012712128	276
0	3197	209.345012712128	277
0	3222	210.811186989838	278
0	3222	210.811186989838	279
0	3247	212.204855927335	280
0	3247	212.204855927335	281
0	3272	213.514142229291	282
0	3272	213.514142229291	283
0	3297	215.406671072658	284
0	3297	215.406671072658	285
0	3300	216.927203385461	286
0	3300	216.927203385461	287
0	3325	218.561276191449	288
0	3325	218.561276191449	289
0	3350	220.131806514994	290
0	3350	220.131806514994	291
0	3372	221.334307280672	292
0	3372	221.334307280672	293
0	3397	222.846313837054	294
0	3397	222.846313837054	295
0	3419	224.161671826453	296
0	3419	224.161671826453	297
0	3444	225.388591623935	298
0	3444	225.388591623935	299
0	3469	227.191921387636	300
0	3469	227.191921387636	301
0	3494	228.323517686059	302
0	3494	228.323517686059	303
0	3519	229.592837987305	304
0	3519	229.592837987305	305
0	3537	231.056548975944	306
0	3537	231.056548975944	307
0	3562	232.690002230765	308
0	3562	232.690002230765	309
0	3587	233.811929526344	310
0	3587	233.811929526344	311
0	3612	235.509925466567	312
0	3612	235.509925466567	313
0	3637	236.671361390339	314
0	3637	236.671361390339	315
0	3662	238.539784930251	316
0	3662	238.539784930251	317
0	3684	239.605772528635	318
0	3684	239.605772528635	319
1	4	0.125945044446	0
1	4	0.125945044446	1
1	27	1.199744570554	2
1	27	1.199744570554	3
1	51	2.652206854464	4
1	51	2.652206854464	5
1	73	4.201358646308	6
1	73	4.201358646308	7
1	98	5.286196584736	8
1	98	5.286196584736	9
1	123	7.100795423747	10
1	123	7.100795423747	11
1	148	8.472561574352	12
1	148	8.472561574352	13
1	169	9.983604217929	14
1	169	9.983604217929	15
1	200	11.949280934562	16
1	200	11.949280934562	17
1	219	13.72028603144	18
1	219	13.72028603144	19
1	245	15.654704262453	20
1	245	15.654704262453	21
1	282	16.754366085214	22
1	282	16.754366085214	23
1	289	17.912768618682	24
1	289	17.912768618682	25
1	310	19.768172947563	26
1	310	19.768172947563	27
1	342	23.141755163652	28
1	342	23.141755163652	29
1	363	25.058358905539	30
1	363	25.058358905539	31
1	385	27.026436760948	32
1	385	27.026436760948	33
1	408	28.177743162519	34
1	408	28.177743162519	35
1	433	29.717146141878	36
1	433	29.717146141878	37
1	442	30.839915095493	38
1	442	30.839915095493	39
1	467	32.78411099433	40
1	467	32.78411099433	41
1	490	34.011584950217	42
1	490	34.011584950217	43
1	514	35.431234540688	44
1	514	35.431234540688	45
1	539	36.777146924223	46
1	539	36.777146924223	47
1	549	38.6930848668	48
1	549	38.6930848668	49
1	574	39.780756808006	50
1	574	39.780756808006	51
1	597	41.166010613789	52
1	597	41.166010613789	53
1	621	42.954957048824	54
1	621	42.954957048824	55
1	646	44.498816928358	56
1	646	44.498816928358	57
1	668	46.448625339786	58
1	668	46.448625339786	59
1	709	48.012606903092	60
1	709	48.012606903092	61
1	716	49.508619098219	62
1	716	49.508619098219	63
1	748	51.000068228699	64
1	748	51.000068228699	65
1	778	52.062200360817	66
1	778	52.062200360817	67
1	796	53.960932850498	68
1	796	53.960932850498	69
1	816	55.322708542649	70
1	816	55.322708542649	71
1	838	57.186263262507	72
1	838	57.186263262507	73
1	863	58.642199432285	74
1	863	58.642199432285	75
1	887	59.930001240876	76
1	887	59.930001240876	77
1	909	61.612113676196	78
1	909	61.612113676196	79
1	952	64.380635965932	80
1	952	64.380635965932	81
1	978	66.344193079547	82
1	978	66.344193079547	83
1	1002	67.510927889857	84
1	1002	67.510927889857	85
1	1024	68.942354770951	86
1	1024	68.942354770951	87
1	1049	70.626612997771	88
1	1049	70.626612997771	89
1	1074	72.310704406019	90
1	1074	72.310704406019	91
1	1112	73.953254185823	92
1	1112	73.953254185823	93
1	1140	77.557893174752	94
1	1140	77.557893174752	95
1	1157	79.175462190888	96
1	1157	79.175462190888	97
1	1191	81.088184385886	98
1	1191	81.088184385886	99
1	1220	82.755368078007	100
1	1220	82.755368078007	101
1	1232	83.987828220767	102
1	1232	83.987828220767	103
1	1261	85.67478666009	104
1	1261	85.67478666009	105
1	1280	87.032866701705	106
1	1280	87.032866701705	107
1	1302	88.880663511884	108
1	1302	88.880663511884	109
1	1332	90.365840787109	110
1	1332	90.365840787109	111
1	1345	91.741242725911	112
1	1345	91.741242725911	113
1	1378	93.594931318944	114
1	1378	93.594931318944	115
1	1394	94.85407525226	116
1	1394	94.85407525226	117
1	1416	96.181510527525	118
1	1416	96.181510527525	119
1	1423	97.609422081387	120
1	1423	97.609422081387	121
1	1447	99.145696638988	122
1	1447	99.145696638988	123
1	1469	100.722524724319	124
1	1469	100.722524724319	125
1	1495	102.336664748525	126
1	1495	102.336664748525	127
1	1532	104.290753356697	128
1	1532	104.290753356697	129
1	1539	105.278567398391	130
1	1539	105.278567398391	131
1	1567	106.762149066052	132
1	1567	106.762149066052	133
1	1593	108.277451492354	134
1	1593	108.277451492354	135
1	1615	109.454677288278	136
1	1615	109.454677288278	137
1	1639	110.84713084203	138
1	1639	110.84713084203	139
1	1661	112.127055399661	140
1	1661	112.127055399661	141
1	1685	113.716361399449	142
1	1685	113.716361399449	143
1	1738	116.534404092657	144
1	1738	116.534404092657	145
1	1751	117.554996655102	146
1	1751	117.554996655102	147
1	1775	119.280011044943	148
1	1775	119.280011044943	149
1	1800	120.838857606711	150
1	1800	120.838857606711	151
1	1825	122.462261063378	152
1	1825	122.462261063378	153
1	1851	124.364017938834	154
1	1851	124.364017938834	155
1	1883	126.274270427186	156
1	1883	126.274270427186	157
1	1905	127.421218311266	158
1	1905	127.421218311266	159
1	1925	129.082686531409	160
1	1925	129.082686531409	161
1	1950	130.281157987892	162
1	1950	130.281157987892	163
1	1980	131.864052077084	164
1	1980	131.864052077084	165
1	2004	133.110654411874	166
1	2004	133.110654411874	167
1	2025	134.952389349114	168
1	2025	134.952389349114	169
1	2050	136.712833436313	170
1	2050	136.712833436313	171
1	2090	138.489765733954	172
1	2090	138.489765733954	173
1	2101	139.520347884275	174
1	2101	139.520347884275	175
1	2125	140.792906132499	176
1	2125	140.792906132499	177
1	2148	142.690572489259	178
1	2148	142.690572489259	179
1	2178	144.416882814937	180
1	2178	144.416882814937	181
1	2194	145.422440218852	182
1	2194	145.422440218852	183
1	2221	147.114079688831	184
1	2221	147.114079688831	185
1	2252	149.042165822538	186
1	2252	149.042165822538	187
1	2265	150.27972054285	188
1	2265	150.27972054285	189
1	2291	151.745300241698	190
1	2291	151.745300241698	191
1	2315	153.339878667555	192
1	2315	153.339878667555	193
1	2338	154.411181566283	194
1	2338	154.411181566283	195
1	2384	158.101449898041	196
1	2384	158.101449898041	197
1	2411	159.134088850145	198
1	2411	159.134088850145	199
1	2431	161.057500341565	200
1	2431	161.057500341565	201
1	2461	162.343876383611	202
1	2461	162.343876383611	203
1	2482	164.021179062609	204
1	2482	164.021179062609	205
1	2506	165.96770461493	206
1	2506	165.96770461493	207
1	2532	167.408858080084	208
1	2532	167.408858080084	209
1	2557	169.291433577104	210
1	2557	169.291433577104	211
1	2574	170.919832479928	212
1	2574	170.919832479928	213
1	2599	171.949453778065	214
1	2599	171.949453778065	215
1	2628	175.16523215589	216
1	2628	175.16523215589	217
1	2656	176.949232295577	218
1	2656	176.949232295577	219
1	2680	178.432053793057	220
1	2680	178.432053793057	221
1	2696	179.615916742298	222
1	2696	179.615916742298	223
1	2725	180.865207164297	224
1	2725	180.865207164297	225
1	2762	183.785673363817	226
1	2762	183.785673363817	227
1	2793	185.533643166635	228
1	2793	185.533643166635	229
1	2809	186.74015661701	230
1	2809	186.74015661701	231
1	2835	188.621279952301	232
1	2835	188.621279952301	233
1	2875	189.828615566402	234
1	2875	189.828615566402	235
1	2882	191.682290954637	236
1	2882	191.682290954637	237
1	2907	193.563114761224	238
1	2907	193.563114761224	239
1	2932	195.118719694237	240
1	2932	195.118719694237	241
1	2956	196.174386697139	242
1	2956	196.174386697139	243
1	2978	197.325271288136	244
1	2978	197.325271288136	245
1	3003	198.384719245079	246
1	3003	198.384719245079	247
1	3032	199.654687482896	248
1	3032	199.654687482896	249
1	3050	200.69865602329	250
1	3050	200.69865602329	251
1	3075	202.169473873311	252
1	3075	202.169473873311	253
1	3100	203.755210595128	254
1	3100	203.755210595128	255
1	3125	205.081371490805	256
1	3125	205.081371490805	257
1	3166	206.833674227597	258
1	3166	206.833674227597	259
1	3175	208.066769496526	260
1	3175	208.066769496526	261
1	3200	209.355908694255	262
1	3200	209.355908694255	263
1	3225	210.832215870676	264
1	3225	210.832215870676	265
1	3269	212.294751088043	266
1	3269	212.294751088043	267
1	3276	213.532205617426	268
1	3276	213.532205617426	269
1	3303	216.939296420968	270
1	3303	216.939296420968	271
1	3328	218.571771233569	272
1	3328	218.571771233569	273
1	3353	220.142629653459	274
1	3353	220.142629653459	275
1	3375	221.352651721259	276
1	3375	221.352651721259	277
1	3400	222.858035541848	278
1	3400	222.858035541848	279
1	3432	224.203271829331	280
1	3432	224.203271829331	281
1	3447	225.403211499556	282
1	3447	225.403211499556	283
1	3486	227.247548128465	284
1	3486	227.247548128465	285
1	3497	228.347957405383	286
1	3497	228.347957405383	287
1	3522	229.609242297591	288
1	3522	229.609242297591	289
1	3544	231.081726577839	290
1	3544	231.081726577839	291
1	3565	232.700249027715	292
1	3565	232.700249027715	293
1	3609	233.887973202036	294
1	3609	233.887973202036	295
1	3615	235.520181612027	296
1	3615	235.520181612027	297
1	3640	236.697673984615	298
1	3640	236.697673984615	299
1	3678	238.599129249933	300
1	3678	238.599129249933	301
1	3695	239.644470275553	302
1	3695	239.644470275553	303
2	7	0.14297423212	0
2	7	0.14297423212	1
2	7	0.14297423212	2
2	26	1.197804550945	3
2	26	1.197804550945	4
2	26	1.197804550945	5
2	54	2.66370437663	6
2	54	2.66370437663	7
2	54	2.66370437663	8
2	74	4.203793947775	9
2	74	4.203793947775	10
2	74	4.203793947775	11
2	99	5.290100847436	12
2	99	5.290100847436	13
2	99	5.290100847436	14
2	124	7.107672826334	15
2	124	7.107672826334	16
2	124	7.107672826334	17
2	155	8.495256703067	18
2	155	8.495256703067	19
2	155	8.495256703067	20
2	170	9.987261576898	21
2	170	9.987261576898	22
2	170	9.987261576898	23
2	194	11.931250461293	24
2	194	11.931250461293	25
2	194	11.931250461293	26
2	220	13.72914201473	27
2	220	13.72914201473	28
2	220	13.72914201473	29
2	241	15.6439339621	30
2	241	15.6439339621	31
2	241	15.6439339621	32
2	266	16.708085152763	33
2	266	16.708085152763	34
2	266	16.708085152763	35
2	288	17.909942402042	36
2	288	17.909942402042	37
2	288	17.909942402042	38
2	311	19.768978617112	39
2	311	19.768978617112	40
2	311	19.768978617112	41
2	338	23.130168971548	42
2	338	23.130168971548	43
2	338	23.130168971548	44
2	364	25.06806088481	45
2	364	25.06806088481	46
2	364	25.06806088481	47
2	392	27.057595637334	48
2	392	27.057595637334	49
2	392	27.057595637334	50
2	407	28.176498283707	51
2	407	28.176498283707	52
2	407	28.176498283707	53
2	432	29.714819381235	54
2	432	29.714819381235	55
2	432	29.714819381235	56
2	443	30.842367206386	57
2	443	30.842367206386	58
2	443	30.842367206386	59
2	470	32.79790355887	60
2	470	32.79790355887	61
2	470	32.79790355887	62
2	489	34.008796972573	63
2	489	34.008796972573	64
2	489	34.008796972573	65
2	517	35.444617790646	66
2	517	35.444617790646	67
2	517	35.444617790646	68
2	550	38.700282046756	69
2	550	38.700282046756	70
2	550	38.700282046756	71
2	575	39.78147219115	72
2	575	39.78147219115	73
2	575	39.78147219115	74
2	596	41.163273549799	75
2	596	41.163273549799	76
2	596	41.163273549799	77
2	624	42.965762455443	78
2	624	42.965762455443	79
2	624	42.965762455443	80
2	649	44.510402635578	81
2	649	44.510402635578	82
2	649	44.510402635578	83
2	683	46.514592596586	84
2	683	46.514592596586	85
2	683	46.514592596586	86
2	693	47.955639505287	87
2	693	47.955639505287	88
2	693	47.955639505287	89
2	715	49.50370269675	90
2	715	49.50370269675	91
2	715	49.50370269675	92
2	740	50.970024984969	93
2	740	50.970024984969	94
2	740	50.970024984969	95
2	765	52.029117856565	96
2	765	52.029117856565	97
2	765	52.029117856565	98
2	790	53.942548109002	99
2	790	53.942548109002	100
2	790	53.942548109002	101
2	815	55.313819709309	102
2	815	55.313819709309	103
2	815	55.313819709309	104
2	837	57.183673583484	105
2	837	57.183673583484	106
2	837	57.183673583484	107
2	862	58.642015644864	108
2	862	58.642015644864	109
2	862	58.642015644864	110
2	890	59.941220138438	111
2	890	59.941220138438	112
2	890	59.941220138438	113
2	910	61.620563107192	114
2	910	61.620563107192	115
2	910	61.620563107192	116
2	930	62.71338992856	117
2	930	62.71338992856	118
2	930	62.71338992856	119
2	955	64.394324239781	120
2	955	64.394324239781	121
2	955	64.394324239781	122
2	977	66.338800864116	123
2	977	66.338800864116	124
2	977	66.338800864116	125
2	1005	67.521265440034	126
2	1005	67.521265440034	127
2	1005	67.521265440034	128
2	1025	68.944333544353	129
2	1025	68.944333544353	130
2	1025	68.944333544353	131
2	1050	70.630214970365	132
2	1050	70.630214970365	133
2	1050	70.630214970365	134
2	1077	72.330078887346	135
2	1077	72.330078887346	136
2	1077	72.330078887346	137
2	1099	73.916923334871	138
2	1099	73.916923334871	139
2	1099	73.916923334871	140
2	1121	75.880273155411	141
2	1121	75.880273155411	142
2	1121	75.880273155411	143
2	1135	77.540143989201	144
2	1135	77.540143989201	145
2	1135	77.540143989201	146
2	1160	79.186576937243	147
2	1160	79.186576937243	148
2	1160	79.186576937243	149
2	1182	81.062260972069	150
2	1182	81.062260972069	151
2	1182	81.062260972069	152
2	1207	82.72240797057	153
2	1207	82.72240797057	154
2	1207	82.72240797057	155
2	1235	83.998346866763	156
2	1235	83.998346866763	157
2	1235	83.998346866763	158
2	1257	85.664411302641	159
2	1257	85.664411302641	160
2	1257	85.664411302641	161
2	1279	87.030185809865	162
2	1279	87.030185809865	163
2	1279	87.030185809865	164
2	1301	88.872149705104	165
2	1301	88.872149705104	166
2	1301	88.872149705104	167
2	1323	90.328029764886	168
2	1323	90.328029764886	169
2	1323	90.328029764886	170
2	1344	91.735841197366	171
2	1344	91.735841197366	172
2	1344	91.735841197366	173
2	1369	93.557825335337	174
2	1369	93.557825335337	175
2	1369	93.557825335337	176
2	1405	94.893048045086	177
2	1405	94.893048045086	178
2	1405	94.893048045086	179
2	1422	97.60719787426	180
2	1422	97.60719787426	181
2	1422	97.60719787426	182
2	1448	99.145770812347	183
2	1448	99.145770812347	184
2	1448	99.145770812347	185
2	1472	100.751996225647	186
2	1472	100.751996225647	187
2	1472	100.751996225647	188
2	1494	102.336114552961	189
2	1494	102.336114552961	190
2	1494	102.336114552961	191
2	1516	104.24325486526	192
2	1516	104.24325486526	193
2	1516	104.24325486526	194
2	1538	105.27321918254	195
2	1538	105.27321918254	196
2	1538	105.27321918254	197
2	1563	106.745191010705	198
2	1563	106.745191010705	199
2	1563	106.745191010705	200
2	1588	108.26349289997	201
2	1588	108.26349289997	202
2	1588	108.26349289997	203
2	1610	109.436345068986	204
2	1610	109.436345068986	205
2	1610	109.436345068986	206
2	1635	110.834862510287	207
2	1635	110.834862510287	208
2	1635	110.834862510287	209
2	1660	112.121366696885	210
2	1660	112.121366696885	211
2	1660	112.121366696885	212
2	1686	113.716572499174	213
2	1686	113.716572499174	214
2	1686	113.716572499174	215
2	1707	115.487909829747	216
2	1707	115.487909829747	217
2	1707	115.487909829747	218
2	1725	116.499231137234	219
2	1725	116.499231137234	220
2	1725	116.499231137234	221
2	1750	117.550922984674	222
2	1750	117.550922984674	223
2	1750	117.550922984674	224
2	1776	119.281865979177	225
2	1776	119.281865979177	226
2	1776	119.281865979177	227
2	1801	120.839695422477	228
2	1801	120.839695422477	229
2	1801	120.839695422477	230
2	1826	122.466613031355	231
2	1826	122.466613031355	232
2	1826	122.466613031355	233
2	1850	124.355731043088	234
2	1850	124.355731043088	235
2	1850	124.355731043088	236
2	1875	126.247239815828	237
2	1875	126.247239815828	238
2	1875	126.247239815828	239
2	1900	127.405215997099	240
2	1900	127.405215997099	241
2	1900	127.405215997099	242
2	1937	129.137792532315	243
2	1937	129.137792532315	244
2	1937	129.137792532315	245
2	1953	130.306371321025	246
2	1953	130.306371321025	247
2	1953	130.306371321025	248
2	1975	131.844988205776	249
2	1975	131.844988205776	250
2	1975	131.844988205776	251
2	2000	133.099668170411	252
2	2000	133.099668170411	253
2	2000	133.099668170411	254
2	2026	134.960287686589	255
2	2026	134.960287686589	256
2	2026	134.960287686589	257
2	2051	136.715808903179	258
2	2051	136.715808903179	259
2	2051	136.715808903179	260
2	2075	138.435695148186	261
2	2075	138.435695148186	262
2	2075	138.435695148186	263
2	2100	139.518202721208	264
2	2100	139.518202721208	265
2	2100	139.518202721208	266
2	2126	140.793395679038	267
2	2126	140.793395679038	268
2	2126	140.793395679038	269
2	2147	142.688547570669	270
2	2147	142.688547570669	271
2	2147	142.688547570669	272
2	2172	144.402126552866	273
2	2172	144.402126552866	274
2	2172	144.402126552866	275
2	2198	145.434329753841	276
2	2198	145.434329753841	277
2	2198	145.434329753841	278
2	2215	147.097399445302	279
2	2215	147.097399445302	280
2	2215	147.097399445302	281
2	2240	149.010958175132	282
2	2240	149.010958175132	283
2	2240	149.010958175132	284
2	2269	150.291685266047	285
2	2269	150.291685266047	286
2	2269	150.291685266047	287
2	2290	151.744911437406	288
2	2290	151.744911437406	289
2	2290	151.744911437406	290
2	2322	153.367386140544	291
2	2322	153.367386140544	292
2	2322	153.367386140544	293
2	2337	154.411088927122	294
2	2337	154.411088927122	295
2	2337	154.411088927122	296
2	2362	156.383990493021	297
2	2362	156.383990493021	298
2	2362	156.383990493021	299
2	2387	158.116830700358	300
2	2387	158.116830700358	301
2	2387	158.116830700358	302
2	2406	159.116422333596	303
2	2406	159.116422333596	304
2	2406	159.116422333596	305
2	2432	161.063607786502	306
2	2432	161.063607786502	307
2	2432	161.063607786502	308
2	2456	162.325637167227	309
2	2456	162.325637167227	310
2	2456	162.325637167227	311
2	2481	164.016856184216	312
2	2481	164.016856184216	313
2	2481	164.016856184216	314
2	2514	165.995224345184	315
2	2514	165.995224345184	316
2	2514	165.995224345184	317
2	2531	167.407096576988	318
2	2531	167.407096576988	319
2	2531	167.407096576988	320
2	2556	169.282003214718	321
2	2556	169.282003214718	322
2	2556	169.282003214718	323
2	2575	170.921386203481	324
2	2575	170.921386203481	325
2	2575	170.921386203481	326
2	2606	171.992604207983	327
2	2606	171.992604207983	328
2	2606	171.992604207983	329
2	2627	175.157762059003	330
2	2627	175.157762059003	331
2	2627	175.157762059003	332
2	2652	176.936953281787	333
2	2652	176.936953281787	334
2	2652	176.936953281787	335
2	2674	178.412763482774	336
2	2674	178.412763482774	337
2	2674	178.412763482774	338
2	2697	179.616469909522	339
2	2697	179.616469909522	340
2	2697	179.616469909522	341
2	2721	180.85257697001	342
2	2721	180.85257697001	343
2	2721	180.85257697001	344
2	2743	182.403956306892	345
2	2743	182.403956306892	346
2	2743	182.403956306892	347
2	2765	183.7973649109	348
2	2765	183.7973649109	349
2	2765	183.7973649109	350
2	2787	185.511660826126	351
2	2787	185.511660826126	352
2	2787	185.511660826126	353
2	2810	186.742331108592	354
2	2810	186.742331108592	355
2	2810	186.742331108592	356
2	2834	188.61542494574	357
2	2834	188.61542494574	358
2	2834	188.61542494574	359
2	2856	189.789598913086	360
2	2856	189.789598913086	361
2	2856	189.789598913086	362
2	2881	191.674114726566	363
2	2881	191.674114726566	364
2	2881	191.674114726566	365
2	2906	193.561755461808	366
2	2906	193.561755461808	367
2	2906	193.561755461808	368
2	2931	195.118562582567	369
2	2931	195.118562582567	370
2	2931	195.118562582567	371
2	2957	196.18054015688	372
2	2957	196.18054015688	373
2	2957	196.18054015688	374
2	2979	197.32579317032	375
2	2979	197.32579317032	376
2	2979	197.32579317032	377
2	3004	198.39214097153	378
2	3004	198.39214097153	379
2	3004	198.39214097153	380
2	3028	199.637922153146	381
2	3028	199.637922153146	382
2	3028	199.637922153146	383
2	3051	200.69964533342	384
2	3051	200.69964533342	385
2	3051	200.69964533342	386
2	3076	202.175377881615	387
2	3076	202.175377881615	388
2	3076	202.175377881615	389
2	3107	203.811256469513	390
2	3107	203.811256469513	391
2	3107	203.811256469513	392
2	3126	205.08658324312	393
2	3126	205.08658324312	394
2	3126	205.08658324312	395
2	3150	206.786999385456	396
2	3150	206.786999385456	397
2	3150	206.786999385456	398
2	3182	208.099577916597	399
2	3182	208.099577916597	400
2	3182	208.099577916597	401
2	3201	209.360601362683	402
2	3201	209.360601362683	403
2	3201	209.360601362683	404
2	3228	210.845428919629	405
2	3228	210.845428919629	406
2	3228	210.845428919629	407
2	3250	212.23835243025	408
2	3250	212.23835243025	409
2	3250	212.23835243025	410
2	3275	213.527413861901	411
2	3275	213.527413861901	412
2	3275	213.527413861901	413
2	3306	216.972836450173	414
2	3306	216.972836450173	415
2	3306	216.972836450173	416
2	3329	218.579739353538	417
2	3329	218.579739353538	418
2	3329	218.579739353538	419
2	3357	220.163850465654	420
2	3357	220.163850465654	421
2	3357	220.163850465654	422
2	3376	221.357021670567	423
2	3376	221.357021670567	424
2	3376	221.357021670567	425
2	3401	222.859413019278	426
2	3401	222.859413019278	427
2	3401	222.859413019278	428
2	3422	224.173271409612	429
2	3422	224.173271409612	430
2	3422	224.173271409612	431
2	3448	225.406593611553	432
2	3448	225.406593611553	433
2	3448	225.406593611553	434
2	3472	227.202529740494	435
2	3472	227.202529740494	436
2	3472	227.202529740494	437
2	3498	228.354050039014	438
2	3498	228.354050039014	439
2	3498	228.354050039014	440
2	3523	229.615708185206	441
2	3523	229.615708185206	442
2	3523	229.615708185206	443
2	3540	231.069819926729	444
2	3540	231.069819926729	445
2	3540	231.069819926729	446
2	3569	232.715335622099	447
2	3569	232.715335622099	448
2	3569	232.715335622099	449
2	3590	233.825463922459	450
2	3590	233.825463922459	451
2	3590	233.825463922459	452
2	3631	235.58929015272	453
2	3631	235.58929015272	454
2	3631	235.58929015272	455
2	3648	236.744352810756	456
2	3648	236.744352810756	457
2	3648	236.744352810756	458
2	3665	238.563723003841	459
2	3665	238.563723003841	460
2	3665	238.563723003841	461
2	3687	239.620461727287	462
2	3687	239.620461727287	463
2	3687	239.620461727287	464
3	11	0.158289352909	0
3	11	0.158289352909	1
3	11	0.158289352909	2
3	34	1.216741598484	3
3	34	1.216741598484	4
3	34	1.216741598484	5
3	62	2.684562205467	6
3	62	2.684562205467	7
3	62	2.684562205467	8
3	77	4.211592536013	9
3	77	4.211592536013	10
3	77	4.211592536013	11
3	102	5.298445269045	12
3	102	5.298445269045	13
3	102	5.298445269045	14
3	131	7.128289786868	15
3	131	7.128289786868	16
3	131	7.128289786868	17
3	151	8.483314869164	18
3	151	8.483314869164	19
3	151	8.483314869164	20
3	176	10.001072039538	21
3	176	10.001072039538	22
3	176	10.001072039538	23
3	199	11.943436756066	24
3	199	11.943436756066	25
3	199	11.943436756066	26
3	223	13.737282821913	27
3	223	13.737282821913	28
3	223	13.737282821913	29
3	249	15.676736038487	30
3	249	15.676736038487	31
3	249	15.676736038487	32
3	270	16.721100867939	33
3	270	16.721100867939	34
3	270	16.721100867939	35
3	296	17.93293080884	36
3	296	17.93293080884	37
3	296	17.93293080884	38
3	318	19.782756907877	39
3	318	19.782756907877	40
3	318	19.782756907877	41
3	344	23.143947271461	42
3	344	23.143947271461	43
3	344	23.143947271461	44
3	371	25.081093964961	45
3	371	25.081093964961	46
3	371	25.081093964961	47
3	388	27.039480667792	48
3	388	27.039480667792	49
3	388	27.039480667792	50
3	414	28.19218167103	51
3	414	28.19218167103	52
3	414	28.19218167103	53
3	450	30.86577253324	54
3	450	30.86577253324	55
3	450	30.86577253324	56
3	471	32.80475698518	57
3	471	32.80475698518	58
3	471	32.80475698518	59
3	500	34.034941287868	60
3	500	34.034941287868	61
3	500	34.034941287868	62
3	522	35.461405120887	63
3	522	35.461405120887	64
3	522	35.461405120887	65
3	542	36.810582294533	66
3	542	36.810582294533	67
3	542	36.810582294533	68
3	557	38.718645935931	69
3	557	38.718645935931	70
3	557	38.718645935931	71
3	581	39.799147840654	72
3	581	39.799147840654	73
3	581	39.799147840654	74
3	614	41.213836810353	75
3	614	41.213836810353	76
3	614	41.213836810353	77
3	632	42.998988105443	78
3	632	42.998988105443	79
3	632	42.998988105443	80
3	650	44.516863466155	81
3	650	44.516863466155	82
3	650	44.516863466155	83
3	671	46.467179837679	84
3	671	46.467179837679	85
3	671	46.467179837679	86
3	705	47.994754761821	87
3	705	47.994754761821	88
3	705	47.994754761821	89
3	731	49.574615671645	90
3	731	49.574615671645	91
3	731	49.574615671645	92
3	744	50.980403425902	93
3	744	50.980403425902	94
3	744	50.980403425902	95
3	769	52.042574595905	96
3	769	52.042574595905	97
3	769	52.042574595905	98
3	795	53.960197559667	99
3	795	53.960197559667	100
3	795	53.960197559667	101
3	821	55.327627670251	102
3	821	55.327627670251	103
3	821	55.327627670251	104
3	844	57.196532951874	105
3	844	57.196532951874	106
3	844	57.196532951874	107
3	877	58.684963285069	108
3	877	58.684963285069	109
3	877	58.684963285069	110
3	891	59.943346893804	111
3	891	59.943346893804	112
3	891	59.943346893804	113
3	916	61.632096549336	114
3	916	61.632096549336	115
3	916	61.632096549336	116
3	934	62.726922329009	117
3	934	62.726922329009	118
3	934	62.726922329009	119
3	956	64.399666817647	120
3	956	64.399666817647	121
3	956	64.399666817647	122
3	989	66.377247452573	123
3	989	66.377247452573	124
3	989	66.377247452573	125
3	1006	67.52888427043	126
3	1006	67.52888427043	127
3	1006	67.52888427043	128
3	1032	68.959866032978	129
3	1032	68.959866032978	130
3	1032	68.959866032978	131
3	1057	70.643335902363	132
3	1057	70.643335902363	133
3	1057	70.643335902363	134
3	1087	72.364532733454	135
3	1087	72.364532733454	136
3	1087	72.364532733454	137
3	1103	73.926999801404	138
3	1103	73.926999801404	139
3	1103	73.926999801404	140
3	1139	77.552847485512	141
3	1139	77.552847485512	142
3	1139	77.552847485512	143
3	1161	79.19564414171	144
3	1161	79.19564414171	145
3	1161	79.19564414171	146
3	1186	81.07800628308	147
3	1186	81.07800628308	148
3	1186	81.07800628308	149
3	1212	82.744923347486	150
3	1212	82.744923347486	151
3	1212	82.744923347486	152
3	1239	84.010384296977	153
3	1239	84.010384296977	154
3	1239	84.010384296977	155
3	1269	85.704297987497	156
3	1269	85.704297987497	157
3	1269	85.704297987497	158
3	1284	87.042738648415	159
3	1284	87.042738648415	160
3	1284	87.042738648415	161
3	1313	88.915369350703	162
3	1313	88.915369350703	163
3	1313	88.915369350703	164
3	1337	90.3762651131	165
3	1337	90.3762651131	166
3	1337	90.3762651131	167
3	1352	91.754098737052	168
3	1352	91.754098737052	169
3	1352	91.754098737052	170
3	1373	93.580462397106	171
3	1373	93.580462397106	172
3	1373	93.580462397106	173
3	1397	94.872277104387	174
3	1397	94.872277104387	175
3	1397	94.872277104387	176
3	1435	97.653846146224	177
3	1435	97.653846146224	178
3	1435	97.653846146224	179
3	1454	99.165517472404	180
3	1454	99.165517472404	181
3	1454	99.165517472404	182
3	1473	100.760297574098	183
3	1473	100.760297574098	184
3	1473	100.760297574098	185
3	1502	102.356732059757	186
3	1502	102.356732059757	187
3	1502	102.356732059757	188
3	1520	104.254764825759	189
3	1520	104.254764825759	190
3	1520	104.254764825759	191
3	1545	105.290300411115	192
3	1545	105.290300411115	193
3	1545	105.290300411115	194
3	1568	106.76477118514	195
3	1568	106.76477118514	196
3	1568	106.76477118514	197
3	1592	108.277030308601	198
3	1592	108.277030308601	199
3	1592	108.277030308601	200
3	1616	109.454888635814	201
3	1616	109.454888635814	202
3	1616	109.454888635814	203
3	1641	110.851146429135	204
3	1641	110.851146429135	205
3	1641	110.851146429135	206
3	1675	112.163662376618	207
3	1675	112.163662376618	208
3	1675	112.163662376618	209
3	1693	113.731304011303	210
3	1693	113.731304011303	211
3	1693	113.731304011303	212
3	1729	116.512281186775	213
3	1729	116.512281186775	214
3	1729	116.512281186775	215
3	1756	117.563285825514	216
3	1756	117.563285825514	217
3	1756	117.563285825514	218
3	1779	119.290286732273	219
3	1779	119.290286732273	220
3	1779	119.290286732273	221
3	1807	120.851507267984	222
3	1807	120.851507267984	223
3	1807	120.851507267984	224
3	1829	122.474978487015	225
3	1829	122.474978487015	226
3	1829	122.474978487015	227
3	1855	124.366273393192	228
3	1855	124.366273393192	229
3	1855	124.366273393192	230
3	1889	126.29679314622	231
3	1889	126.29679314622	232
3	1889	126.29679314622	233
3	1906	127.426811388659	234
3	1906	127.426811388659	235
3	1906	127.426811388659	236
3	1928	129.105862673418	237
3	1928	129.105862673418	238
3	1928	129.105862673418	239
3	1963	130.338461850596	240
3	1963	130.338461850596	241
3	1963	130.338461850596	242
3	1984	131.868653060903	243
3	1984	131.868653060903	244
3	1984	131.868653060903	245
3	2005	133.113488893879	246
3	2005	133.113488893879	247
3	2005	133.113488893879	248
3	2029	134.969735522725	249
3	2029	134.969735522725	250
3	2029	134.969735522725	251
3	2058	136.733114271091	252
3	2058	136.733114271091	253
3	2058	136.733114271091	254
3	2084	138.470417955699	255
3	2084	138.470417955699	256
3	2084	138.470417955699	257
3	2108	139.539672372342	258
3	2108	139.539672372342	259
3	2108	139.539672372342	260
3	2132	140.803873164763	261
3	2132	140.803873164763	262
3	2132	140.803873164763	263
3	2155	142.70877802302	264
3	2155	142.70877802302	265
3	2155	142.70877802302	266
3	2177	144.415440125113	267
3	2177	144.415440125113	268
3	2177	144.415440125113	269
3	2197	145.43324256279	270
3	2197	145.43324256279	271
3	2197	145.43324256279	272
3	2220	147.108472328973	273
3	2220	147.108472328973	274
3	2220	147.108472328973	275
3	2245	149.028368823502	276
3	2245	149.028368823502	277
3	2245	149.028368823502	278
3	2268	150.290164439435	279
3	2268	150.290164439435	280
3	2268	150.290164439435	281
3	2297	151.760618840357	282
3	2297	151.760618840357	283
3	2297	151.760618840357	284
3	2318	153.353288866076	285
3	2318	153.353288866076	286
3	2318	153.353288866076	287
3	2348	154.450453415286	288
3	2348	154.450453415286	289
3	2348	154.450453415286	290
3	2366	156.395074846301	291
3	2366	156.395074846301	292
3	2366	156.395074846301	293
3	2388	158.118298039063	294
3	2388	158.118298039063	295
3	2388	158.118298039063	296
3	2421	159.161519250544	297
3	2421	159.161519250544	298
3	2421	159.161519250544	299
3	2439	161.087220855985	300
3	2439	161.087220855985	301
3	2439	161.087220855985	302
3	2460	162.341112065985	303
3	2460	162.341112065985	304
3	2460	162.341112065985	305
3	2489	164.042825855077	306
3	2489	164.042825855077	307
3	2489	164.042825855077	308
3	2509	165.978192168906	309
3	2509	165.978192168906	310
3	2509	165.978192168906	311
3	2539	167.423455959201	312
3	2539	167.423455959201	313
3	2539	167.423455959201	314
3	2562	169.300143268954	315
3	2562	169.300143268954	316
3	2562	169.300143268954	317
3	2581	170.935261480712	318
3	2581	170.935261480712	319
3	2581	170.935261480712	320
3	2602	171.962408700379	321
3	2602	171.962408700379	322
3	2602	171.962408700379	323
3	2632	175.168637093443	324
3	2632	175.168637093443	325
3	2632	175.168637093443	326
3	2659	176.96894650479	327
3	2659	176.96894650479	328
3	2659	176.96894650479	329
3	2679	178.426799343684	330
3	2679	178.426799343684	331
3	2679	178.426799343684	332
3	2703	179.628074057972	333
3	2703	179.628074057972	334
3	2703	179.628074057972	335
3	2726	180.872258287296	336
3	2726	180.872258287296	337
3	2726	180.872258287296	338
3	2747	182.418164117522	339
3	2747	182.418164117522	340
3	2747	182.418164117522	341
3	2770	183.818992695831	342
3	2770	183.818992695831	343
3	2770	183.818992695831	344
3	2791	185.524277793292	345
3	2791	185.524277793292	346
3	2791	185.524277793292	347
3	2817	186.761104742297	348
3	2817	186.761104742297	349
3	2817	186.761104742297	350
3	2840	188.62728824505	351
3	2840	188.62728824505	352
3	2840	188.62728824505	353
3	2864	189.817011359324	354
3	2864	189.817011359324	355
3	2864	189.817011359324	356
3	2886	191.689169479925	357
3	2886	191.689169479925	358
3	2886	191.689169479925	359
3	2919	193.593160067145	360
3	2919	193.593160067145	361
3	2919	193.593160067145	362
3	2938	195.130914277281	363
3	2938	195.130914277281	364
3	2938	195.130914277281	365
3	2960	196.185766893789	366
3	2960	196.185766893789	367
3	2960	196.185766893789	368
3	2986	197.344882846457	369
3	2986	197.344882846457	370
3	2986	197.344882846457	371
3	3021	198.429573170821	372
3	3021	198.429573170821	373
3	3021	198.429573170821	374
3	3040	199.675027818672	375
3	3040	199.675027818672	376
3	3040	199.675027818672	377
3	3057	200.710991177418	378
3	3057	200.710991177418	379
3	3057	200.710991177418	380
3	3089	202.230501770963	381
3	3089	202.230501770963	382
3	3089	202.230501770963	383
3	3103	203.791246603205	384
3	3103	203.791246603205	385
3	3103	203.791246603205	386
3	3132	205.099781972255	387
3	3132	205.099781972255	388
3	3132	205.099781972255	389
3	3154	206.799312716594	390
3	3154	206.799312716594	391
3	3154	206.799312716594	392
3	3178	208.082583543144	393
3	3178	208.082583543144	394
3	3178	208.082583543144	395
3	3207	209.372283853891	396
3	3207	209.372283853891	397
3	3207	209.372283853891	398
3	3229	210.847626332644	399
3	3229	210.847626332644	400
3	3229	210.847626332644	401
3	3265	212.283396372399	402
3	3265	212.283396372399	403
3	3265	212.283396372399	404
3	3287	213.557738045048	405
3	3287	213.557738045048	406
3	3287	213.557738045048	407
3	3307	216.977557591884	408
3	3307	216.977557591884	409
3	3307	216.977557591884	410
3	3332	218.584224813258	411
3	3332	218.584224813258	412
3	3332	218.584224813258	413
3	3356	220.154460908562	414
3	3356	220.154460908562	415
3	3356	220.154460908562	416
3	3382	221.3682763587	417
3	3382	221.3682763587	418
3	3382	221.3682763587	419
3	3407	222.871526184451	420
3	3407	222.871526184451	421
3	3407	222.871526184451	422
3	3427	224.198715690675	423
3	3427	224.198715690675	424
3	3427	224.198715690675	425
3	3454	225.425698102311	426
3	3454	225.425698102311	427
3	3454	225.425698102311	428
3	3477	227.223554249778	429
3	3477	227.223554249778	430
3	3477	227.223554249778	431
3	3501	228.362173945333	432
3	3501	228.362173945333	433
3	3501	228.362173945333	434
3	3530	229.636345866865	435
3	3530	229.636345866865	436
3	3530	229.636345866865	437
3	3546	231.091645743625	438
3	3546	231.091645743625	439
3	3546	231.091645743625	440
3	3568	232.710782302018	441
3	3568	232.710782302018	442
3	3568	232.710782302018	443
3	3603	233.861386175834	444
3	3603	233.861386175834	445
3	3603	233.861386175834	446
3	3618	235.532503887607	447
3	3618	235.532503887607	448
3	3618	235.532503887607	449
3	3643	236.711638640411	450
3	3643	236.711638640411	451
3	3643	236.711638640411	452
3	3670	238.587151801435	453
3	3670	238.587151801435	454
3	3670	238.587151801435	455
3	3691	239.632127424244	456
3	3691	239.632127424244	457
3	3691	239.632127424244	458
4	15	0.17113805722	0
4	15	0.17113805722	1
4	15	0.17113805722	2
4	39	1.226094158571	3
4	39	1.226094158571	4
4	39	1.226094158571	5
4	63	2.687847638967	6
4	63	2.687847638967	7
4	63	2.687847638967	8
4	85	4.230998976425	9
4	85	4.230998976425	10
4	85	4.230998976425	11
4	113	5.312942201392	12
4	113	5.312942201392	13
4	113	5.312942201392	14
4	141	7.164825906136	15
4	141	7.164825906136	16
4	141	7.164825906136	17
4	184	10.032367667622	18
4	184	10.032367667622	19
4	184	10.032367667622	20
4	212	11.9851645227	21
4	212	11.9851645227	22
4	212	11.9851645227	23
4	231	13.748568173631	24
4	231	13.748568173631	25
4	231	13.748568173631	26
4	256	15.687685512254	27
4	256	15.687685512254	28
4	256	15.687685512254	29
4	275	16.735266459396	30
4	275	16.735266459396	31
4	275	16.735266459396	32
4	300	17.938157477933	33
4	300	17.938157477933	34
4	300	17.938157477933	35
4	325	19.792850112042	36
4	325	19.792850112042	37
4	325	19.792850112042	38
4	353	23.161598750116	39
4	353	23.161598750116	40
4	353	23.161598750116	41
4	378	25.094727888486	42
4	378	25.094727888486	43
4	378	25.094727888486	44
4	396	27.072583897835	45
4	396	27.072583897835	46
4	396	27.072583897835	47
4	423	28.208238745966	48
4	423	28.208238745966	49
4	423	28.208238745966	50
4	457	30.880424370831	51
4	457	30.880424370831	52
4	457	30.880424370831	53
4	482	32.829416150048	54
4	482	32.829416150048	55
4	482	32.829416150048	56
4	504	34.063548974257	57
4	504	34.063548974257	58
4	504	34.063548974257	59
4	529	35.48059451434	60
4	529	35.48059451434	61
4	529	35.48059451434	62
4	567	38.749027099102	63
4	567	38.749027099102	64
4	567	38.749027099102	65
4	589	39.816780019235	66
4	589	39.816780019235	67
4	589	39.816780019235	68
4	608	41.196529070733	69
4	608	41.196529070733	70
4	608	41.196529070733	71
4	634	43.001021310641	72
4	634	43.001021310641	73
4	634	43.001021310641	74
4	661	44.541545224842	75
4	661	44.541545224842	76
4	661	44.541545224842	77
4	675	46.482225990088	78
4	675	46.482225990088	79
4	675	46.482225990088	80
4	701	47.978413755275	81
4	701	47.978413755275	82
4	701	47.978413755275	83
4	726	49.551183539852	84
4	726	49.551183539852	85
4	726	49.551183539852	86
4	749	51.002373554957	87
4	749	51.002373554957	88
4	749	51.002373554957	89
4	783	52.074540106373	90
4	783	52.074540106373	91
4	783	52.074540106373	92
4	806	53.975872563472	93
4	806	53.975872563472	94
4	806	53.975872563472	95
4	827	55.335523733511	96
4	827	55.335523733511	97
4	827	55.335523733511	98
4	852	57.211274036756	99
4	852	57.211274036756	100
4	852	57.211274036756	101
4	874	58.676076004989	102
4	874	58.676076004989	103
4	874	58.676076004989	104
4	899	59.959943676377	105
4	899	59.959943676377	106
4	899	59.959943676377	107
4	938	62.746132366026	108
4	938	62.746132366026	109
4	938	62.746132366026	110
4	964	64.413845915223	111
4	964	64.413845915223	112
4	964	64.413845915223	113
4	988	66.369637711136	114
4	988	66.369637711136	115
4	988	66.369637711136	116
4	1014	67.54846152882	117
4	1014	67.54846152882	118
4	1014	67.54846152882	119
4	1039	68.97112350288	120
4	1039	68.97112350288	121
4	1039	68.97112350288	122
4	1067	70.670461465402	123
4	1067	70.670461465402	124
4	1067	70.670461465402	125
4	1086	72.356568035809	126
4	1086	72.356568035809	127
4	1086	72.356568035809	128
4	1108	73.943285878549	129
4	1108	73.943285878549	130
4	1108	73.943285878549	131
4	1150	77.601677389495	132
4	1150	77.601677389495	133
4	1150	77.601677389495	134
4	1168	79.206538055425	135
4	1168	79.206538055425	136
4	1168	79.206538055425	137
4	1195	81.097598159492	138
4	1195	81.097598159492	139
4	1195	81.097598159492	140
4	1225	82.7737159423	141
4	1225	82.7737159423	142
4	1225	82.7737159423	143
4	1244	84.024305734313	144
4	1244	84.024305734313	145
4	1244	84.024305734313	146
4	1268	85.699014302509	147
4	1268	85.699014302509	148
4	1268	85.699014302509	149
4	1294	87.060333139	150
4	1294	87.060333139	151
4	1294	87.060333139	152
4	1312	88.913997324716	153
4	1312	88.913997324716	154
4	1312	88.913997324716	155
4	1362	91.789094636941	156
4	1362	91.789094636941	157
4	1362	91.789094636941	158
4	1385	93.616021249679	159
4	1385	93.616021249679	160
4	1385	93.616021249679	161
4	1401	94.882783352592	162
4	1401	94.882783352592	163
4	1401	94.882783352592	164
4	1434	97.6491924504	165
4	1434	97.6491924504	166
4	1434	97.6491924504	167
4	1459	99.177048032591	168
4	1459	99.177048032591	169
4	1459	99.177048032591	170
4	1481	100.770522792782	171
4	1481	100.770522792782	172
4	1481	100.770522792782	173
4	1509	102.377715930011	174
4	1509	102.377715930011	175
4	1509	102.377715930011	176
4	1524	104.268014045369	177
4	1524	104.268014045369	178
4	1524	104.268014045369	179
4	1554	105.310984238545	180
4	1554	105.310984238545	181
4	1554	105.310984238545	182
4	1579	106.782110754525	183
4	1579	106.782110754525	184
4	1579	106.782110754525	185
4	1603	108.32265300155	186
4	1603	108.32265300155	187
4	1603	108.32265300155	188
4	1625	109.467749548078	189
4	1625	109.467749548078	190
4	1625	109.467749548078	191
4	1651	110.873918408662	192
4	1651	110.873918408662	193
4	1651	110.873918408662	194
4	1674	112.163002727937	195
4	1674	112.163002727937	196
4	1674	112.163002727937	197
4	1700	113.757562320528	198
4	1700	113.757562320528	199
4	1700	113.757562320528	200
4	1718	115.555405512747	201
4	1718	115.555405512747	202
4	1718	115.555405512747	203
4	1737	116.532619202628	204
4	1737	116.532619202628	205
4	1737	116.532619202628	206
4	1765	117.575959575857	207
4	1765	117.575959575857	208
4	1765	117.575959575857	209
4	1790	119.317139755758	210
4	1790	119.317139755758	211
4	1790	119.317139755758	212
4	1816	120.919784580298	213
4	1816	120.919784580298	214
4	1816	120.919784580298	215
4	1840	122.506906155835	216
4	1840	122.506906155835	217
4	1840	122.506906155835	218
4	1862	124.383589801885	219
4	1862	124.383589801885	220
4	1862	124.383589801885	221
4	1893	126.312573704655	222
4	1893	126.312573704655	223
4	1893	126.312573704655	224
4	1915	127.437240044978	225
4	1915	127.437240044978	226
4	1915	127.437240044978	227
4	1932	129.123318764095	228
4	1932	129.123318764095	229
4	1932	129.123318764095	230
4	1962	130.329399731765	231
4	1962	130.329399731765	232
4	1962	130.329399731765	233
4	1990	131.887243391378	234
4	1990	131.887243391378	235
4	1990	131.887243391378	236
4	2015	133.128267612443	237
4	2015	133.128267612443	238
4	2015	133.128267612443	239
4	2036	134.98689494597	240
4	2036	134.98689494597	241
4	2036	134.98689494597	242
4	2066	136.758972615501	243
4	2066	136.758972615501	244
4	2066	136.758972615501	245
4	2091	138.495444439597	246
4	2091	138.495444439597	247
4	2091	138.495444439597	248
4	2112	139.544477416642	249
4	2112	139.544477416642	250
4	2112	139.544477416642	251
4	2137	140.817477202167	252
4	2137	140.817477202167	253
4	2137	140.817477202167	254
4	2163	142.725808412599	255
4	2163	142.725808412599	256
4	2163	142.725808412599	257
4	2187	144.435309897678	258
4	2187	144.435309897678	259
4	2187	144.435309897678	260
4	2229	147.119887099298	261
4	2229	147.119887099298	262
4	2229	147.119887099298	263
4	2253	149.048223927639	264
4	2253	149.048223927639	265
4	2253	149.048223927639	266
4	2280	150.317030649031	267
4	2280	150.317030649031	268
4	2280	150.317030649031	269
4	2301	151.774066524078	270
4	2301	151.774066524078	271
4	2301	151.774066524078	272
4	2323	153.368252567376	273
4	2323	153.368252567376	274
4	2323	153.368252567376	275
4	2350	154.451316183444	276
4	2350	154.451316183444	277
4	2350	154.451316183444	278
4	2374	156.420179337699	279
4	2374	156.420179337699	280
4	2374	156.420179337699	281
4	2396	158.133434385075	282
4	2396	158.133434385075	283
4	2396	158.133434385075	284
4	2420	159.155922989811	285
4	2420	159.155922989811	286
4	2420	159.155922989811	287
4	2447	161.127319224466	288
4	2447	161.127319224466	289
4	2447	161.127319224466	290
4	2468	162.358268262754	291
4	2468	162.358268262754	292
4	2468	162.358268262754	293
4	2496	164.054147122004	294
4	2496	164.054147122004	295
4	2496	164.054147122004	296
4	2513	165.988959200551	297
4	2513	165.988959200551	298
4	2513	165.988959200551	299
4	2549	167.462735170172	300
4	2549	167.462735170172	301
4	2549	167.462735170172	302
4	2586	170.950243491311	303
4	2586	170.950243491311	304
4	2586	170.950243491311	305
4	2614	172.02486717039	306
4	2614	172.02486717039	307
4	2614	172.02486717039	308
4	2638	175.192297378228	309
4	2638	175.192297378228	310
4	2638	175.192297378228	311
4	2667	177.019273569468	312
4	2667	177.019273569468	313
4	2667	177.019273569468	314
4	2684	178.436772429209	315
4	2684	178.436772429209	316
4	2684	178.436772429209	317
4	2711	179.648332443413	318
4	2711	179.648332443413	319
4	2711	179.648332443413	320
4	2736	180.899965294825	321
4	2736	180.899965294825	322
4	2736	180.899965294825	323
4	2752	182.4358211729	324
4	2752	182.4358211729	325
4	2752	182.4358211729	326
4	2774	183.826714932995	327
4	2774	183.826714932995	328
4	2774	183.826714932995	329
4	2802	185.545331752111	330
4	2802	185.545331752111	331
4	2802	185.545331752111	332
4	2821	186.764772247641	333
4	2821	186.764772247641	334
4	2821	186.764772247641	335
4	2849	188.648678495984	336
4	2849	188.648678495984	337
4	2849	188.648678495984	338
4	2866	189.817859193983	339
4	2866	189.817859193983	340
4	2866	189.817859193983	341
4	2899	191.725044819716	342
4	2899	191.725044819716	343
4	2899	191.725044819716	344
4	2918	193.5899563011	345
4	2918	193.5899563011	346
4	2918	193.5899563011	347
4	2947	195.150925989875	348
4	2947	195.150925989875	349
4	2947	195.150925989875	350
4	2968	196.197787495284	351
4	2968	196.197787495284	352
4	2968	196.197787495284	353
4	2990	197.352857338852	354
4	2990	197.352857338852	355
4	2990	197.352857338852	356
4	3014	198.418014764577	357
4	3014	198.418014764577	358
4	3014	198.418014764577	359
4	3039	199.668267541908	360
4	3039	199.668267541908	361
4	3039	199.668267541908	362
4	3066	200.742189337933	363
4	3066	200.742189337933	364
4	3066	200.742189337933	365
4	3093	202.247666535074	366
4	3093	202.247666535074	367
4	3093	202.247666535074	368
4	3115	203.842819639919	369
4	3115	203.842819639919	370
4	3115	203.842819639919	371
4	3140	205.121800532164	372
4	3140	205.121800532164	373
4	3140	205.121800532164	374
4	3158	206.821993836928	375
4	3158	206.821993836928	376
4	3158	206.821993836928	377
4	3190	208.140466089413	378
4	3190	208.140466089413	379
4	3190	208.140466089413	380
4	3212	209.384219762706	381
4	3212	209.384219762706	382
4	3212	209.384219762706	383
4	3237	210.86139280764	384
4	3237	210.86139280764	385
4	3237	210.86139280764	386
4	3259	212.268215065092	387
4	3259	212.268215065092	388
4	3259	212.268215065092	389
4	3293	213.569065180616	390
4	3293	213.569065180616	391
4	3293	213.569065180616	392
4	3314	216.989449823756	393
4	3314	216.989449823756	394
4	3314	216.989449823756	395
4	3340	218.602105590409	396
4	3340	218.602105590409	397
4	3340	218.602105590409	398
4	3365	220.175123326093	399
4	3365	220.175123326093	400
4	3365	220.175123326093	401
4	3387	221.382092749397	402
4	3387	221.382092749397	403
4	3387	221.382092749397	404
4	3412	222.889246540523	405
4	3412	222.889246540523	406
4	3412	222.889246540523	407
4	3431	224.199772392369	408
4	3431	224.199772392369	409
4	3431	224.199772392369	410
4	3465	225.448261933554	411
4	3465	225.448261933554	412
4	3465	225.448261933554	413
4	3484	227.239597301759	414
4	3484	227.239597301759	415
4	3484	227.239597301759	416
4	3513	228.386266633916	417
4	3513	228.386266633916	418
4	3513	228.386266633916	419
4	3556	231.108889174119	420
4	3556	231.108889174119	421
4	3556	231.108889174119	422
4	3577	232.728809720484	423
4	3577	232.728809720484	424
4	3577	232.728809720484	425
4	3598	233.848387309193	426
4	3598	233.848387309193	427
4	3598	233.848387309193	428
4	3622	235.553945501486	429
4	3622	235.553945501486	430
4	3622	235.553945501486	431
4	3647	236.742930347212	432
4	3647	236.742930347212	433
4	3647	236.742930347212	434
4	3674	238.59261232265	435
4	3674	238.59261232265	436
4	3674	238.59261232265	437
4	3698	239.655689299839	438
4	3698	239.655689299839	439
4	3698	239.655689299839	440
5	18	0.18113805722	0
5	44	1.233194970127	1
5	47	1.236094158571	2
5	69	2.697847638967	3
5	92	4.240998976425	4
5	117	5.322942201392	5
5	119	5.328272212836	6
5	140	7.141990959439	7
5	144	7.174825906136	8
5	187	10.042367667622	9
5	190	10.052855522333	10
5	262	15.723305342849	11
5	331	19.805332995685	12
5	357	23.171598750116	13
5	381	25.104727888486	14
5	425	28.217798580506	15
5	461	30.890424370831	16
5	463	30.893783980183	17
5	485	32.839416150048	18
5	508	34.073548974257	19
5	510	34.075008179033	20
5	533	35.49059451434	21
5	566	38.739361641868	22
5	592	39.826780019235	23
5	610	41.202617965287	24
5	613	41.206529070733	25
5	642	43.011021310641	26
5	664	44.551545224842	27
5	678	46.492225990088	28
5	689	46.524719695343	29
5	729	49.561183539852	30
5	754	51.012373554957	31
5	761	51.06899098958	32
5	808	53.982083999186	33
5	811	53.985872563472	34
5	833	55.345523733511	35
5	876	58.678029488053	36
5	880	58.686076004989	37
5	905	59.969943676377	38
5	926	61.66158479043	39
5	941	62.756132366026	40
5	948	62.804892347172	41
5	971	64.423845915223	42
5	973	64.432548555744	43
5	992	66.379637711136	44
5	998	66.39238167075	45
5	1043	68.98112350288	46
5	1045	68.98862820616	47
5	1070	70.680461465402	48
5	1089	72.364750713172	49
5	1092	72.366568035809	50
5	1131	75.921113282039	51
5	1153	77.611677389495	52
5	1178	79.245905817742	53
5	1201	81.107598159492	54
5	1203	81.108048038801	55
5	1222	82.759524661904	56
5	1228	82.7837159423	57
5	1251	84.034305734313	58
5	1253	84.038436730143	59
5	1297	87.070333139	60
5	1316	88.923997324716	61
5	1334	90.370990871783	62
5	1365	91.799094636941	63
5	1387	93.61670134842	64
5	1390	93.626021249679	65
5	1404	94.892783352592	66
5	1440	97.6591924504	67
5	1465	99.187048032591	68
5	1487	100.780522792782	69
5	1490	100.796265983243	70
5	1527	104.278014045369	71
5	1559	105.320984238545	72
5	1581	106.790404238473	73
5	1629	109.477749548078	74
5	1631	109.482622160646	75
5	1653	110.879430607833	76
5	1656	110.883918408662	77
5	1673	112.161376328297	78
5	1703	113.767562320528	79
5	1717	115.533813635221	80
5	1721	115.565405512747	81
5	1742	116.542619202628	82
5	1746	116.551339013736	83
5	1769	117.585959575857	84
5	1771	117.586752148178	85
5	1794	119.327139755758	86
5	1796	119.33460871904	87
5	1818	120.92874725357	88
5	1821	120.929784580298	89
5	1843	122.516906155835	90
5	1846	122.530692006079	91
5	1871	124.398093098966	92
5	1896	126.322573704655	93
5	1918	127.447240044978	94
5	1935	129.133318764095	95
5	1946	129.159736433006	96
5	1965	130.338625287631	97
5	1968	130.339399731765	98
5	1993	131.897243391378	99
5	2019	133.138267612443	100
5	2021	133.145685233592	101
5	2040	134.99689494597	102
5	2046	135.02091652588	103
5	2068	136.76688501732	104
5	2086	138.476949609351	105
5	2119	139.554477416642	106
5	2143	140.827477202167	107
5	2168	142.735808412599	108
5	2190	144.445309897678	109
5	2211	145.48186087285	110
5	2236	147.129887099298	111
5	2258	149.058223927639	112
5	2261	149.083612477965	113
5	2283	150.327030649031	114
5	2286	150.360414516797	115
5	2304	151.784066524078	116
5	2311	151.817045830249	117
5	2329	153.378252567376	118
5	2355	154.460833026727	119
5	2358	154.461316183444	120
5	2377	156.430179337699	121
5	2402	158.143434385075	122
5	2419	159.15413314116	123
5	2475	162.368268262754	124
5	2499	164.064147122004	125
5	2502	164.086233005791	126
5	2517	165.998959200551	127
5	2527	166.037290407917	128
5	2548	167.456315073176	129
5	2552	167.472735170172	130
5	2595	170.97510735243	131
5	2618	172.03486717039	132
5	2620	172.043025750305	133
5	2642	175.202297378228	134
5	2648	175.213836414534	135
5	2670	177.029273569468	136
5	2692	178.446772429209	137
5	2717	179.659371897604	138
5	2758	182.4458211729	139
5	2781	183.836714932995	140
5	2783	183.845081464386	141
5	2805	185.555331752111	142
5	2830	186.780813117748	143
5	2852	188.658678495984	144
5	2871	189.827427924958	145
5	2874	189.827859193983	146
5	2898	191.71983127909	147
5	2902	191.735044819716	148
5	2921	193.598182164644	149
5	2924	193.5999563011	150
5	2949	195.15958961117	151
5	2952	195.160925989875	152
5	2974	196.207787495284	153
5	3018	198.428014764577	154
5	3020	198.429025303712	155
5	3043	199.678267541908	156
5	3068	200.749340061056	157
5	3071	200.752189337933	158
5	3096	202.257666535074	159
5	3119	203.852819639919	160
5	3121	203.857073276538	161
5	3144	205.131800532164	162
5	3146	205.138055576856	163
5	3162	206.831993836928	164
5	3171	206.846893019397	165
5	3218	209.394219762706	166
5	3221	209.406075103324	167
5	3243	210.87139280764	168
5	3246	210.899572311072	169
5	3264	212.278215065092	170
5	3324	217.027705503518	171
5	3347	218.612105590409	172
5	3371	220.185123326093	173
5	3394	221.392092749397	174
5	3396	221.401639632791	175
5	3418	222.899246540523	176
5	3438	224.209772392369	177
5	3443	224.237784900542	178
5	3464	225.446519730101	179
5	3468	225.458261933554	180
5	3491	227.250765883625	181
5	3515	228.391099171482	182
5	3518	228.396266633916	183
5	3558	231.109234061603	184
5	3583	232.738809720484	185
5	3602	233.858387309193	186
5	3605	233.863803328819	187
5	3625	235.563945501486	188
5	3633	235.594147786847	189
5	3651	236.752930347212	190
5	3661	236.804380862076	191
5	3681	238.60261232265	192
5	3701	239.665689299839	193
6	19	0.182120267794	0
6	19	0.182120267794	1
6	19	0.182120267794	2
6	31	1.208047292249	3
6	31	1.208047292249	4
6	31	1.208047292249	5
6	58	2.673912676099	6
6	58	2.673912676099	7
6	58	2.673912676099	8
6	84	4.222066909044	9
6	84	4.222066909044	10
6	84	4.222066909044	11
6	106	5.301013553976	12
6	106	5.301013553976	13
6	106	5.301013553976	14
6	130	7.119211325959	15
6	130	7.119211325959	16
6	130	7.119211325959	17
6	159	8.517054404279	18
6	159	8.517054404279	19
6	159	8.517054404279	20
6	180	10.014397386858	21
6	180	10.014397386858	22
6	180	10.014397386858	23
6	198	11.943383288302	24
6	198	11.943383288302	25
6	198	11.943383288302	26
6	227	13.74333389694	27
6	227	13.74333389694	28
6	227	13.74333389694	29
6	248	15.671966999217	30
6	248	15.671966999217	31
6	248	15.671966999217	32
6	271	16.729860977525	33
6	271	16.729860977525	34
6	271	16.729860977525	35
6	295	17.924391337924	36
6	295	17.924391337924	37
6	295	17.924391337924	38
6	317	19.781730492527	39
6	317	19.781730492527	40
6	317	19.781730492527	41
6	343	23.143444219808	42
6	343	23.143444219808	43
6	343	23.143444219808	44
6	370	25.079559542862	45
6	370	25.079559542862	46
6	370	25.079559542862	47
6	400	27.089142864643	48
6	400	27.089142864643	49
6	400	27.089142864643	50
6	415	28.196087794702	51
6	415	28.196087794702	52
6	415	28.196087794702	53
6	449	30.864233938586	54
6	449	30.864233938586	55
6	449	30.864233938586	56
6	478	32.815484963702	57
6	478	32.815484963702	58
6	478	32.815484963702	59
6	494	34.019526656199	60
6	494	34.019526656199	61
6	494	34.019526656199	62
6	521	35.460522146335	63
6	521	35.460522146335	64
6	521	35.460522146335	65
6	556	38.715929906991	66
6	556	38.715929906991	67
6	556	38.715929906991	68
6	582	39.805831905737	69
6	582	39.805831905737	70
6	582	39.805831905737	71
6	601	41.174151819732	72
6	601	41.174151819732	73
6	601	41.174151819732	74
6	628	42.988579716325	75
6	628	42.988579716325	76
6	628	42.988579716325	77
6	654	44.523555114331	78
6	654	44.523555114331	79
6	654	44.523555114331	80
6	679	46.497108029328	81
6	679	46.497108029328	82
6	679	46.497108029328	83
6	697	47.967127747369	84
6	697	47.967127747369	85
6	697	47.967127747369	86
6	722	49.535664506957	87
6	722	49.535664506957	88
6	722	49.535664506957	89
6	755	51.044077095582	90
6	755	51.044077095582	91
6	755	51.044077095582	92
6	770	52.043927694111	93
6	770	52.043927694111	94
6	770	52.043927694111	95
6	794	53.954900916523	96
6	794	53.954900916523	97
6	794	53.954900916523	98
6	820	55.324585104157	99
6	820	55.324585104157	100
6	820	55.324585104157	101
6	845	57.199591034327	102
6	845	57.199591034327	103
6	845	57.199591034327	104
6	869	58.656472503575	105
6	869	58.656472503575	106
6	869	58.656472503575	107
6	898	59.957174057899	108
6	898	59.957174057899	109
6	898	59.957174057899	110
6	917	61.640962196756	111
6	917	61.640962196756	112
6	917	61.640962196756	113
6	942	62.7660069856	114
6	942	62.7660069856	115
6	942	62.7660069856	116
6	963	64.411467393018	117
6	963	64.411467393018	118
6	963	64.411467393018	119
6	982	66.352119460167	120
6	982	66.352119460167	121
6	982	66.352119460167	122
6	1013	67.544234762641	123
6	1013	67.544234762641	124
6	1013	67.544234762641	125
6	1031	68.956263466819	126
6	1031	68.956263466819	127
6	1031	68.956263466819	128
6	1056	70.641919784707	129
6	1056	70.641919784707	130
6	1056	70.641919784707	131
6	1081	72.343422993572	132
6	1081	72.343422993572	133
6	1081	72.343422993572	134
6	1104	73.933631549601	135
6	1104	73.933631549601	136
6	1104	73.933631549601	137
6	1125	75.892842471268	138
6	1125	75.892842471268	139
6	1125	75.892842471268	140
6	1146	77.575830442479	141
6	1146	77.575830442479	142
6	1146	77.575830442479	143
6	1172	79.218513892704	144
6	1172	79.218513892704	145
6	1172	79.218513892704	146
6	1187	81.079740389871	147
6	1187	81.079740389871	148
6	1187	81.079740389871	149
6	1211	82.735268059208	150
6	1211	82.735268059208	151
6	1211	82.735268059208	152
6	1240	84.015824557756	153
6	1240	84.015824557756	154
6	1240	84.015824557756	155
6	1262	85.684137327386	156
6	1262	85.684137327386	157
6	1262	85.684137327386	158
6	1285	87.04277329372	159
6	1285	87.04277329372	160
6	1285	87.04277329372	161
6	1308	88.896101669758	162
6	1308	88.896101669758	163
6	1308	88.896101669758	164
6	1327	90.348507025022	165
6	1327	90.348507025022	166
6	1327	90.348507025022	167
6	1349	91.746674278713	168
6	1349	91.746674278713	169
6	1349	91.746674278713	170
6	1377	93.591844322587	171
6	1377	93.591844322587	172
6	1377	93.591844322587	173
6	1409	94.903404700941	174
6	1409	94.903404700941	175
6	1409	94.903404700941	176
6	1429	97.625826501231	177
6	1429	97.625826501231	178
6	1429	97.625826501231	179
6	1455	99.171172230619	180
6	1455	99.171172230619	181
6	1455	99.171172230619	182
6	1477	100.769001029323	183
6	1477	100.769001029323	184
6	1477	100.769001029323	185
6	1501	102.355313560634	186
6	1501	102.355313560634	187
6	1501	102.355313560634	188
6	1528	104.278995301675	189
6	1528	104.278995301675	190
6	1528	104.278995301675	191
6	1546	105.296410184203	192
6	1546	105.296410184203	193
6	1546	105.296410184203	194
6	1569	106.768707554671	195
6	1569	106.768707554671	196
6	1569	106.768707554671	197
6	1599	108.301021166003	198
6	1599	108.301021166003	199
6	1599	108.301021166003	200
6	1614	109.450948825919	201
6	1614	109.450948825919	202
6	1614	109.450948825919	203
6	1640	110.849773904173	204
6	1640	110.849773904173	205
6	1640	110.849773904173	206
6	1665	112.133270812023	207
6	1665	112.133270812023	208
6	1665	112.133270812023	209
6	1692	113.729244207881	210
6	1692	113.729244207881	211
6	1692	113.729244207881	212
6	1711	115.512378347967	213
6	1711	115.512378347967	214
6	1711	115.512378347967	215
6	1730	116.520591468247	216
6	1730	116.520591468247	217
6	1730	116.520591468247	218
6	1755	117.562974613463	219
6	1755	117.562974613463	220
6	1755	117.562974613463	221
6	1786	119.303752986109	222
6	1786	119.303752986109	223
6	1786	119.303752986109	224
6	1811	120.899904717853	225
6	1811	120.899904717853	226
6	1811	120.899904717853	227
6	1836	122.49204296979	228
6	1836	122.49204296979	229
6	1836	122.49204296979	230
6	1861	124.376364664106	231
6	1861	124.376364664106	232
6	1861	124.376364664106	233
6	1879	126.257362095002	234
6	1879	126.257362095002	235
6	1879	126.257362095002	236
6	1904	127.417896249717	237
6	1904	127.417896249717	238
6	1904	127.417896249717	239
6	1936	129.134801345909	240
6	1936	129.134801345909	241
6	1936	129.134801345909	242
6	1957	130.31698614834	243
6	1957	130.31698614834	244
6	1957	130.31698614834	245
6	1979	131.857642253239	246
6	1979	131.857642253239	247
6	1979	131.857642253239	248
6	2006	133.118004008404	249
6	2006	133.118004008404	250
6	2006	133.118004008404	251
6	2037	134.996283431178	252
6	2037	134.996283431178	253
6	2037	134.996283431178	254
6	2057	136.730519343333	255
6	2057	136.730519343333	256
6	2057	136.730519343333	257
6	2079	138.45638807743	258
6	2079	138.45638807743	259
6	2079	138.45638807743	260
6	2107	139.533893093698	261
6	2107	139.533893093698	262
6	2107	139.533893093698	263
6	2133	140.81192457868	264
6	2133	140.81192457868	265
6	2133	140.81192457868	266
6	2154	142.708184736889	267
6	2154	142.708184736889	268
6	2154	142.708184736889	269
6	2176	144.414841551218	270
6	2176	144.414841551218	271
6	2176	144.414841551218	272
6	2205	145.451951338727	273
6	2205	145.451951338727	274
6	2205	145.451951338727	275
6	2219	147.108382204774	276
6	2219	147.108382204774	277
6	2219	147.108382204774	278
6	2244	149.025724875766	279
6	2244	149.025724875766	280
6	2244	149.025724875766	281
6	2276	150.305568974442	282
6	2276	150.305568974442	283
6	2276	150.305568974442	284
6	2305	151.785454372754	285
6	2305	151.785454372754	286
6	2305	151.785454372754	287
6	2330	153.384285762977	288
6	2330	153.384285762977	289
6	2330	153.384285762977	290
6	2344	154.432626505922	291
6	2344	154.432626505922	292
6	2344	154.432626505922	293
6	2367	156.397181133027	294
6	2367	156.397181133027	295
6	2367	156.397181133027	296
6	2395	158.133424328843	297
6	2395	158.133424328843	298
6	2395	158.133424328843	299
6	2410	159.133929639944	300
6	2410	159.133929639944	301
6	2410	159.133929639944	302
6	2438	161.081037994388	303
6	2438	161.081037994388	304
6	2438	161.081037994388	305
6	2462	162.349228085489	306
6	2462	162.349228085489	307
6	2462	162.349228085489	308
6	2488	164.034383922285	309
6	2488	164.034383922285	310
6	2488	164.034383922285	311
6	2521	166.009587524224	312
6	2521	166.009587524224	313
6	2521	166.009587524224	314
6	2536	167.41813905113	315
6	2536	167.41813905113	316
6	2536	167.41813905113	317
6	2561	169.299905859149	318
6	2561	169.299905859149	319
6	2561	169.299905859149	320
6	2585	170.947001267365	321
6	2585	170.947001267365	322
6	2585	170.947001267365	323
6	2610	172.008904120417	324
6	2610	172.008904120417	325
6	2610	172.008904120417	326
6	2639	175.193662548937	327
6	2639	175.193662548937	328
6	2639	175.193662548937	329
6	2663	176.989247367807	330
6	2663	176.989247367807	331
6	2663	176.989247367807	332
6	2678	178.42486644212	333
6	2678	178.42486644212	334
6	2678	178.42486644212	335
6	2704	179.630612011487	336
6	2704	179.630612011487	337
6	2704	179.630612011487	338
6	2729	180.875315766069	339
6	2729	180.875315766069	340
6	2729	180.875315766069	341
6	2751	182.433090641462	342
6	2751	182.433090641462	343
6	2751	182.433090641462	344
6	2769	183.811402755744	345
6	2769	183.811402755744	346
6	2769	183.811402755744	347
6	2792	185.524837541068	348
6	2792	185.524837541068	349
6	2792	185.524837541068	350
6	2816	186.753876792346	351
6	2816	186.753876792346	352
6	2816	186.753876792346	353
6	2839	188.626698490446	354
6	2839	188.626698490446	355
6	2839	188.626698490446	356
6	2860	189.80388221423	357
6	2860	189.80388221423	358
6	2860	189.80388221423	359
6	2889	191.693770216446	360
6	2889	191.693770216446	361
6	2889	191.693770216446	362
6	2913	193.573894816325	363
6	2913	193.573894816325	364
6	2913	193.573894816325	365
6	2939	195.139357859794	366
6	2939	195.139357859794	367
6	2939	195.139357859794	368
6	2964	196.193588916775	369
6	2964	196.193588916775	370
6	2964	196.193588916775	371
6	2985	197.338400836919	372
6	2985	197.338400836919	373
6	2985	197.338400836919	374
6	3010	198.407384439134	375
6	3010	198.407384439134	376
6	3010	198.407384439134	377
6	3033	199.656353230788	378
6	3033	199.656353230788	379
6	3033	199.656353230788	380
6	3058	200.717343614647	381
6	3058	200.717343614647	382
6	3058	200.717343614647	383
6	3082	202.189017025326	384
6	3082	202.189017025326	385
6	3082	202.189017025326	386
6	3111	203.832393371056	387
6	3111	203.832393371056	388
6	3111	203.832393371056	389
6	3133	205.104116009308	390
6	3133	205.104116009308	391
6	3133	205.104116009308	392
6	3159	206.823080428818	393
6	3159	206.823080428818	394
6	3159	206.823080428818	395
6	3186	208.12426041812	396
6	3186	208.12426041812	397
6	3186	208.12426041812	398
6	3211	209.383823993641	399
6	3211	209.383823993641	400
6	3211	209.383823993641	401
6	3236	210.857628463594	402
6	3236	210.857628463594	403
6	3236	210.857628463594	404
6	3254	212.253448794095	405
6	3254	212.253448794095	406
6	3254	212.253448794095	407
6	3280	213.53781573018	408
6	3280	213.53781573018	409
6	3280	213.53781573018	410
6	3315	216.992249859084	411
6	3315	216.992249859084	412
6	3315	216.992249859084	413
6	3339	218.596492992477	414
6	3339	218.596492992477	415
6	3339	218.596492992477	416
6	3364	220.173989741838	417
6	3364	220.173989741838	418
6	3364	220.173989741838	419
6	3383	221.374048788429	420
6	3383	221.374048788429	421
6	3383	221.374048788429	422
6	3408	222.880034890928	423
6	3408	222.880034890928	424
6	3408	222.880034890928	425
6	3426	224.18911729408	426
6	3426	224.18911729408	427
6	3426	224.18911729408	428
6	3455	225.426095166162	429
6	3455	225.426095166162	430
6	3455	225.426095166162	431
6	3476	227.214667615121	432
6	3476	227.214667615121	433
6	3476	227.214667615121	434
6	3505	228.364250868447	435
6	3505	228.364250868447	436
6	3505	228.364250868447	437
6	3529	229.630940151905	438
6	3529	229.630940151905	439
6	3529	229.630940151905	440
6	3545	231.089033983253	441
6	3545	231.089033983253	442
6	3545	231.089033983253	443
6	3576	232.72552068336	444
6	3576	232.72552068336	445
6	3576	232.72552068336	446
6	3594	233.835472267466	447
6	3594	233.835472267466	448
6	3594	233.835472267466	449
6	3626	235.565269165959	450
6	3626	235.565269165959	451
6	3626	235.565269165959	452
6	3655	236.764097627954	453
6	3655	236.764097627954	454
6	3655	236.764097627954	455
6	3669	238.579902717687	456
6	3669	238.579902717687	457
6	3669	238.579902717687	458
7	38	1.223194970127	0
7	38	1.223194970127	1
7	89	4.238186017481	2
7	89	4.238186017481	3
7	114	5.318272212836	4
7	114	5.318272212836	5
7	135	7.131990959439	6
7	135	7.131990959439	7
7	163	8.535112586284	8
7	163	8.535112586284	9
7	188	10.042855522333	10
7	188	10.042855522333	11
7	207	11.955650759267	12
7	207	11.955650759267	13
7	260	15.713305342849	14
7	260	15.713305342849	15
7	326	19.795332995685	16
7	326	19.795332995685	17
7	354	23.163746515248	18
7	354	23.163746515248	19
7	422	28.207798580506	20
7	422	28.207798580506	21
7	458	30.883783980183	22
7	458	30.883783980183	23
7	505	34.065008179033	24
7	505	34.065008179033	25
7	530	35.488234072767	26
7	530	35.488234072767	27
7	564	38.729361641868	28
7	564	38.729361641868	29
7	607	41.192617965287	30
7	607	41.192617965287	31
7	633	43.000933224396	32
7	633	43.000933224396	33
7	684	46.514719695343	34
7	684	46.514719695343	35
7	730	49.570980643674	36
7	730	49.570980643674	37
7	759	51.05899098958	38
7	759	51.05899098958	39
7	777	52.059244489285	40
7	777	52.059244489285	41
7	805	53.972083999186	42
7	805	53.972083999186	43
7	856	57.231548120759	44
7	856	57.231548120759	45
7	873	58.668029488053	46
7	873	58.668029488053	47
7	924	61.65158479043	48
7	924	61.65158479043	49
7	946	62.794892347172	50
7	946	62.794892347172	51
7	968	64.422548555744	52
7	968	64.422548555744	53
7	993	66.38238167075	54
7	993	66.38238167075	55
7	1040	68.97862820616	56
7	1040	68.97862820616	57
7	1064	70.658685909025	58
7	1064	70.658685909025	59
7	1085	72.354750713172	60
7	1085	72.354750713172	61
7	1129	75.911113282039	62
7	1129	75.911113282039	63
7	1176	79.235905817742	64
7	1176	79.235905817742	65
7	1196	81.098048038801	66
7	1196	81.098048038801	67
7	1216	82.749524661904	68
7	1216	82.749524661904	69
7	1248	84.028436730143	70
7	1248	84.028436730143	71
7	1331	90.360990871783	72
7	1331	90.360990871783	73
7	1359	91.764393558334	74
7	1359	91.764393558334	75
7	1384	93.60670134842	76
7	1384	93.60670134842	77
7	1433	97.646258623822	78
7	1433	97.646258623822	79
7	1488	100.786265983243	80
7	1488	100.786265983243	81
7	1553	105.306998639805	82
7	1553	105.306998639805	83
7	1578	106.780404238473	84
7	1578	106.780404238473	85
7	1626	109.472622160646	86
7	1626	109.472622160646	87
7	1650	110.869430607833	88
7	1650	110.869430607833	89
7	1671	112.151376328297	90
7	1671	112.151376328297	91
7	1715	115.523813635221	92
7	1715	115.523813635221	93
7	1739	116.541339013736	94
7	1739	116.541339013736	95
7	1766	117.576752148178	96
7	1766	117.576752148178	97
7	1791	119.32460871904	98
7	1791	119.32460871904	99
7	1815	120.91874725357	100
7	1815	120.91874725357	101
7	1844	122.520692006079	102
7	1844	122.520692006079	103
7	1866	124.388093098966	104
7	1866	124.388093098966	105
7	1884	126.281131341382	106
7	1884	126.281131341382	107
7	1919	127.447489868463	108
7	1919	127.447489868463	109
7	1944	129.149736433006	110
7	1944	129.149736433006	111
7	1961	130.328625287631	112
7	1961	130.328625287631	113
7	1994	131.90340573492	114
7	1994	131.90340573492	115
7	2016	133.135685233592	116
7	2016	133.135685233592	117
7	2044	135.01091652588	118
7	2044	135.01091652588	119
7	2065	136.75688501732	120
7	2065	136.75688501732	121
7	2083	138.466949609351	122
7	2083	138.466949609351	123
7	2113	139.545343101873	124
7	2113	139.545343101873	125
7	2162	142.720739893978	126
7	2162	142.720739893978	127
7	2209	145.47186087285	128
7	2209	145.47186087285	129
7	2228	147.118914112385	130
7	2228	147.118914112385	131
7	2259	149.073612477965	132
7	2259	149.073612477965	133
7	2284	150.350414516797	134
7	2284	150.350414516797	135
7	2309	151.807045830249	136
7	2309	151.807045830249	137
7	2349	154.450833026727	138
7	2349	154.450833026727	139
7	2378	156.435337697101	140
7	2378	156.435337697101	141
7	2417	159.14413314116	142
7	2417	159.14413314116	143
7	2446	161.121657605091	144
7	2446	161.121657605091	145
7	2472	162.36194464204	146
7	2472	162.36194464204	147
7	2500	164.076233005791	148
7	2500	164.076233005791	149
7	2525	166.027290407917	150
7	2525	166.027290407917	151
7	2546	167.446315073176	152
7	2546	167.446315073176	153
7	2593	170.96510735243	154
7	2593	170.96510735243	155
7	2615	172.033025750305	156
7	2615	172.033025750305	157
7	2646	175.203836414534	158
7	2646	175.203836414534	159
7	2712	179.649371897604	160
7	2712	179.649371897604	161
7	2778	183.835081464386	162
7	2778	183.835081464386	163
7	2822	186.770813117748	164
7	2822	186.770813117748	165
7	2865	189.817427924958	166
7	2865	189.817427924958	167
7	2896	191.70983127909	168
7	2896	191.70983127909	169
7	2917	193.588182164644	170
7	2917	193.588182164644	171
7	2946	195.14958961117	172
7	2946	195.14958961117	173
7	2994	197.355951785321	174
7	2994	197.355951785321	175
7	3015	198.419025303712	176
7	3015	198.419025303712	177
7	3065	200.739340061056	178
7	3065	200.739340061056	179
7	3086	202.210666581783	180
7	3086	202.210666581783	181
7	3116	203.847073276538	182
7	3116	203.847073276538	183
7	3141	205.128055576856	184
7	3141	205.128055576856	185
7	3167	206.836893019397	186
7	3167	206.836893019397	187
7	3194	208.156991183016	188
7	3194	208.156991183016	189
7	3219	209.396075103324	190
7	3219	209.396075103324	191
7	3244	210.889572311072	192
7	3244	210.889572311072	193
7	3258	212.264748865744	194
7	3258	212.264748865744	195
7	3286	213.550269585574	196
7	3286	213.550269585574	197
7	3322	217.017705503518	198
7	3322	217.017705503518	199
7	3344	218.610540056584	200
7	3344	218.610540056584	201
7	3391	221.391639632791	202
7	3391	221.391639632791	203
7	3441	224.227784900542	204
7	3441	224.227784900542	205
7	3462	225.436519730101	206
7	3462	225.436519730101	207
7	3485	227.240765883625	208
7	3485	227.240765883625	209
7	3512	228.381099171482	210
7	3512	228.381099171482	211
7	3552	231.099234061603	212
7	3552	231.099234061603	213
7	3584	232.747586521918	214
7	3584	232.747586521918	215
7	3599	233.853803328819	216
7	3599	233.853803328819	217
7	3630	235.584147786847	218
7	3630	235.584147786847	219
7	3659	236.794380862076	220
7	3659	236.794380862076	221

