version 2
run General-4-20230921-22:34:24-7056
attr configname General
attr datetime 20230921-22:34:24
attr experiment General
attr inifile omnetpp.ini
attr iterationvars ""
attr iterationvarsf ""
attr measurement ""
attr network Network3
attr processid 7056
attr repetition 4
attr replication #4
attr resultdir results
attr runnumber 4
attr seedset 4
param Network3.node[*].transmissionTime "uniform(1s, 2s)"
param Network3.node[*].delayTime "uniform(0.01s, 0.2s)"
param Network3.node[*].processingTime exponential(0.01s)
param Network3.node[0].lossProbability 0
param Network3.node[1].lossProbability 0.1
param Network3.node[2].lossProbability 0.1
param Network3.node[3].lossProbability "0.1 / 2"
param Network3.node[4].lossProbability "0.1 / 2"
param Network3.node[6].lossProbability "0.1 * 2"
param Network3.node[7].lossProbability "0.1 * 2"
param Network3.node[5].lossProbability "0.1 * 3"

vector 0 Network3.node[0] txVector ETV
vector 1 Network3.node[1] txVector ETV
vector 2 Network3.node[3] txVector ETV
vector 3 Network3.node[2] txVector ETV
vector 4 Network3.node[4] txVector ETV
vector 5 Network3.node[6] txVector ETV
vector 6 Network3.node[7] txVector ETV
vector 7 Network3.node[5] rxVector ETV
0	1	0.193735669288	0
0	1	0.193735669288	1
0	26	2.094357123985	2
0	26	2.094357123985	3
0	47	4.077757797358	4
0	47	4.077757797358	5
0	69	5.524106997918	6
0	69	5.524106997918	7
0	91	6.752869668105	8
0	91	6.752869668105	9
0	112	8.220620021145	10
0	112	8.220620021145	11
0	137	10.139003060213	12
0	137	10.139003060213	13
0	162	11.183650888656	14
0	162	11.183650888656	15
0	187	12.293469007979	16
0	187	12.293469007979	17
0	212	13.470876989574	18
0	212	13.470876989574	19
0	237	14.554061106792	20
0	237	14.554061106792	21
0	251	15.644202829259	22
0	251	15.644202829259	23
0	257	17.306505264402	24
0	257	17.306505264402	25
0	282	19.210881886226	26
0	282	19.210881886226	27
0	307	20.992413009205	28
0	307	20.992413009205	29
0	332	22.11198969713	30
0	332	22.11198969713	31
0	354	24.080663827169	32
0	354	24.080663827169	33
0	376	25.413158991295	34
0	376	25.413158991295	35
0	398	27.346538159917	36
0	398	27.346538159917	37
0	423	28.511656274707	38
0	423	28.511656274707	39
0	448	29.648011463848	40
0	448	29.648011463848	41
0	473	31.601967438045	42
0	473	31.601967438045	43
0	498	32.797991831475	44
0	498	32.797991831475	45
0	520	34.673054178399	46
0	520	34.673054178399	47
0	538	35.901848097485	48
0	538	35.901848097485	49
0	563	37.569302626573	50
0	563	37.569302626573	51
0	588	38.602362094135	52
0	588	38.602362094135	53
0	613	40.163394658514	54
0	613	40.163394658514	55
0	638	41.694321525902	56
0	638	41.694321525902	57
0	663	42.944463432687	58
0	663	42.944463432687	59
0	685	44.455959835243	60
0	685	44.455959835243	61
0	707	45.513541174274	62
0	707	45.513541174274	63
0	732	47.431724475617	64
0	732	47.431724475617	65
0	757	49.338659593057	66
0	757	49.338659593057	67
0	782	50.780119113544	68
0	782	50.780119113544	69
0	807	52.315223383171	70
0	807	52.315223383171	71
0	832	53.335284964101	72
0	832	53.335284964101	73
0	857	55.015973999085	74
0	857	55.015973999085	75
0	882	56.233927186499	76
0	882	56.233927186499	77
0	907	57.577547460482	78
0	907	57.577547460482	79
0	932	58.828902176967	80
0	932	58.828902176967	81
0	957	60.812867887704	82
0	957	60.812867887704	83
0	979	62.006200810582	84
0	979	62.006200810582	85
0	1004	63.614285925557	86
0	1004	63.614285925557	87
0	1029	65.413712239047	88
0	1029	65.413712239047	89
0	1051	66.795117225186	90
0	1051	66.795117225186	91
0	1076	68.038496532165	92
0	1076	68.038496532165	93
0	1101	69.078306004093	94
0	1101	69.078306004093	95
0	1126	70.663993767383	96
0	1126	70.663993767383	97
0	1151	71.88492262728	98
0	1151	71.88492262728	99
0	1176	72.906096076746	100
0	1176	72.906096076746	101
0	1198	74.281660995832	102
0	1198	74.281660995832	103
0	1223	76.271480252654	104
0	1223	76.271480252654	105
0	1245	77.320129740438	106
0	1245	77.320129740438	107
0	1270	78.688613407933	108
0	1270	78.688613407933	109
0	1292	80.541507831695	110
0	1292	80.541507831695	111
0	1317	82.080528911589	112
0	1317	82.080528911589	113
0	1338	83.830691368239	114
0	1338	83.830691368239	115
0	1363	85.62855690244	116
0	1363	85.62855690244	117
0	1385	87.235357375037	118
0	1385	87.235357375037	119
0	1410	88.747645955918	120
0	1410	88.747645955918	121
0	1435	90.043238222286	122
0	1435	90.043238222286	123
0	1460	91.863653119806	124
0	1460	91.863653119806	125
0	1485	93.429846296472	126
0	1485	93.429846296472	127
0	1510	95.205932675315	128
0	1510	95.205932675315	129
0	1535	96.872903631454	130
0	1535	96.872903631454	131
0	1560	98.600860154409	132
0	1560	98.600860154409	133
0	1563	100.350373278292	134
0	1563	100.350373278292	135
0	1584	101.556143004367	136
0	1584	101.556143004367	137
0	1609	103.518817548094	138
0	1609	103.518817548094	139
0	1634	105.087863139961	140
0	1634	105.087863139961	141
0	1659	106.494956350107	142
0	1659	106.494956350107	143
0	1684	108.148333962228	144
0	1684	108.148333962228	145
0	1706	109.912565678743	146
0	1706	109.912565678743	147
0	1731	111.680574938807	148
0	1731	111.680574938807	149
0	1756	113.660281469033	150
0	1756	113.660281469033	151
0	1781	115.309155723697	152
0	1781	115.309155723697	153
0	1806	116.571421131177	154
0	1806	116.571421131177	155
0	1831	118.257149719551	156
0	1831	118.257149719551	157
0	1852	119.872474076144	158
0	1852	119.872474076144	159
0	1877	121.590680836152	160
0	1877	121.590680836152	161
0	1902	123.212727443699	162
0	1902	123.212727443699	163
0	1927	125.157935971545	164
0	1927	125.157935971545	165
0	1952	126.84010449975	166
0	1952	126.84010449975	167
0	1977	128.783455870265	168
0	1977	128.783455870265	169
0	2002	130.48833386033	170
0	2002	130.48833386033	171
0	2027	132.106819769285	172
0	2027	132.106819769285	173
0	2052	133.621644039323	174
0	2052	133.621644039323	175
0	2077	134.631251177901	176
0	2077	134.631251177901	177
0	2102	136.393558755435	178
0	2102	136.393558755435	179
0	2123	138.197079640033	180
0	2123	138.197079640033	181
0	2148	139.61404282545	182
0	2148	139.61404282545	183
0	2173	141.169841467787	184
0	2173	141.169841467787	185
0	2198	142.408719849691	186
0	2198	142.408719849691	187
0	2223	144.206034902867	188
0	2223	144.206034902867	189
0	2248	145.370862801943	190
0	2248	145.370862801943	191
0	2273	147.064746799797	192
0	2273	147.064746799797	193
0	2298	149.030363176868	194
0	2298	149.030363176868	195
0	2323	150.852444637718	196
0	2323	150.852444637718	197
0	2345	152.542884777218	198
0	2345	152.542884777218	199
0	2370	153.959994528361	200
0	2370	153.959994528361	201
0	2395	155.117105981952	202
0	2395	155.117105981952	203
0	2420	156.154461162782	204
0	2420	156.154461162782	205
0	2445	157.471047188074	206
0	2445	157.471047188074	207
0	2463	159.114670086338	208
0	2463	159.114670086338	209
0	2485	160.363456798869	210
0	2485	160.363456798869	211
0	2503	161.468295932201	212
0	2503	161.468295932201	213
0	2525	163.190830583138	214
0	2525	163.190830583138	215
0	2550	165.172122207623	216
0	2550	165.172122207623	217
0	2575	167.117363545032	218
0	2575	167.117363545032	219
0	2600	168.392163298944	220
0	2600	168.392163298944	221
0	2625	170.030935996598	222
0	2625	170.030935996598	223
0	2650	171.502130875983	224
0	2650	171.502130875983	225
0	2675	172.924559903252	226
0	2675	172.924559903252	227
0	2697	173.99963434801	228
0	2697	173.99963434801	229
0	2722	175.271888091849	230
0	2722	175.271888091849	231
0	2744	176.72158443268	232
0	2744	176.72158443268	233
0	2769	178.560428031875	234
0	2769	178.560428031875	235
0	2794	179.669168871051	236
0	2794	179.669168871051	237
0	2816	180.804941414079	238
0	2816	180.804941414079	239
0	2841	182.511622112632	240
0	2841	182.511622112632	241
0	2866	184.321136192806	242
0	2866	184.321136192806	243
0	2891	185.791598386053	244
0	2891	185.791598386053	245
0	2916	187.57518024921	246
0	2916	187.57518024921	247
0	2941	188.625651766933	248
0	2941	188.625651766933	249
0	2963	190.312521282039	250
0	2963	190.312521282039	251
0	2985	192.31193858028	252
0	2985	192.31193858028	253
0	3007	193.396793933507	254
0	3007	193.396793933507	255
0	3032	195.372341357559	256
0	3032	195.372341357559	257
0	3057	196.928464316219	258
0	3057	196.928464316219	259
0	3067	198.346518162327	260
0	3067	198.346518162327	261
0	3092	200.039111892382	262
0	3092	200.039111892382	263
0	3117	201.66683764096	264
0	3117	201.66683764096	265
0	3142	202.781642361466	266
0	3142	202.781642361466	267
0	3164	204.002470130488	268
0	3164	204.002470130488	269
0	3189	205.219223113186	270
0	3189	205.219223113186	271
0	3214	206.248772179629	272
0	3214	206.248772179629	273
0	3235	207.529110099809	274
0	3235	207.529110099809	275
0	3260	209.00274993192	276
0	3260	209.00274993192	277
0	3282	210.887622634802	278
0	3282	210.887622634802	279
0	3307	212.78888397982	280
0	3307	212.78888397982	281
0	3332	214.07950727075	282
0	3332	214.07950727075	283
0	3357	215.592950302564	284
0	3357	215.592950302564	285
0	3379	217.230700005699	286
0	3379	217.230700005699	287
0	3404	218.303592444785	288
0	3404	218.303592444785	289
0	3429	219.660121555828	290
0	3429	219.660121555828	291
0	3454	220.966732902375	292
0	3454	220.966732902375	293
0	3479	222.256156341095	294
0	3479	222.256156341095	295
0	3504	224.224805873042	296
0	3504	224.224805873042	297
0	3529	226.048700685767	298
0	3529	226.048700685767	299
0	3554	227.206625158354	300
0	3554	227.206625158354	301
0	3557	229.144540284449	302
0	3557	229.144540284449	303
0	3582	230.45234763335	304
0	3582	230.45234763335	305
0	3604	231.763625785164	306
0	3604	231.763625785164	307
0	3629	233.747642740296	308
0	3629	233.747642740296	309
0	3654	235.306967147315	310
0	3654	235.306967147315	311
0	3676	236.62296944942	312
0	3676	236.62296944942	313
0	3701	238.053968399453	314
0	3701	238.053968399453	315
0	3726	239.442317888529	316
0	3726	239.442317888529	317
1	4	0.205631491707	0
1	4	0.205631491707	1
1	4	0.205631491707	2
1	29	2.106146503787	3
1	29	2.106146503787	4
1	29	2.106146503787	5
1	50	4.093580092305	6
1	50	4.093580092305	7
1	50	4.093580092305	8
1	73	5.536479176172	9
1	73	5.536479176172	10
1	73	5.536479176172	11
1	95	6.767313282267	12
1	95	6.767313282267	13
1	95	6.767313282267	14
1	115	8.23627322774	15
1	115	8.23627322774	16
1	115	8.23627322774	17
1	140	10.150003452506	18
1	140	10.150003452506	19
1	140	10.150003452506	20
1	166	11.205171753995	21
1	166	11.205171753995	22
1	166	11.205171753995	23
1	190	12.305129887382	24
1	190	12.305129887382	25
1	190	12.305129887382	26
1	216	13.494082007688	27
1	216	13.494082007688	28
1	216	13.494082007688	29
1	240	14.566234022744	30
1	240	14.566234022744	31
1	240	14.566234022744	32
1	260	17.316673854189	33
1	260	17.316673854189	34
1	260	17.316673854189	35
1	285	19.225253697103	36
1	285	19.225253697103	37
1	285	19.225253697103	38
1	318	21.066112958784	39
1	318	21.066112958784	40
1	318	21.066112958784	41
1	338	22.138468831501	42
1	338	22.138468831501	43
1	338	22.138468831501	44
1	357	24.093631794316	45
1	357	24.093631794316	46
1	357	24.093631794316	47
1	379	25.436421113419	48
1	379	25.436421113419	49
1	379	25.436421113419	50
1	401	27.359161499826	51
1	401	27.359161499826	52
1	401	27.359161499826	53
1	427	28.529561798556	54
1	427	28.529561798556	55
1	427	28.529561798556	56
1	455	29.685962911782	57
1	455	29.685962911782	58
1	455	29.685962911782	59
1	476	31.618015674069	60
1	476	31.618015674069	61
1	476	31.618015674069	62
1	508	32.864799425937	63
1	508	32.864799425937	64
1	508	32.864799425937	65
1	524	34.688605746534	66
1	524	34.688605746534	67
1	524	34.688605746534	68
1	541	35.912555913193	69
1	541	35.912555913193	70
1	541	35.912555913193	71
1	566	37.581621480879	72
1	566	37.581621480879	73
1	566	37.581621480879	74
1	598	38.644748802939	75
1	598	38.644748802939	76
1	598	38.644748802939	77
1	616	40.173408226428	78
1	616	40.173408226428	79
1	616	40.173408226428	80
1	642	41.710035713027	81
1	642	41.710035713027	82
1	642	41.710035713027	83
1	669	42.96815065844	84
1	669	42.96815065844	85
1	669	42.96815065844	86
1	689	44.469407501159	87
1	689	44.469407501159	88
1	689	44.469407501159	89
1	711	45.526987844074	90
1	711	45.526987844074	91
1	711	45.526987844074	92
1	735	47.445620309773	93
1	735	47.445620309773	94
1	735	47.445620309773	95
1	767	49.385847577822	96
1	767	49.385847577822	97
1	767	49.385847577822	98
1	788	50.822639252323	99
1	788	50.822639252323	100
1	788	50.822639252323	101
1	811	52.334797687718	102
1	811	52.334797687718	103
1	811	52.334797687718	104
1	836	53.353042682076	105
1	836	53.353042682076	106
1	836	53.353042682076	107
1	867	55.060118455147	108
1	867	55.060118455147	109
1	867	55.060118455147	110
1	892	56.286837581863	111
1	892	56.286837581863	112
1	892	56.286837581863	113
1	910	57.588197362813	114
1	910	57.588197362813	115
1	910	57.588197362813	116
1	936	58.844532958623	117
1	936	58.844532958623	118
1	936	58.844532958623	119
1	960	60.825381398469	120
1	960	60.825381398469	121
1	960	60.825381398469	122
1	983	62.046802003692	123
1	983	62.046802003692	124
1	983	62.046802003692	125
1	1018	63.71526462063	126
1	1018	63.71526462063	127
1	1018	63.71526462063	128
1	1032	65.47841278829	129
1	1032	65.47841278829	130
1	1032	65.47841278829	131
1	1065	66.861514886978	132
1	1065	66.861514886978	133
1	1065	66.861514886978	134
1	1079	68.050433534907	135
1	1079	68.050433534907	136
1	1079	68.050433534907	137
1	1104	69.089683699069	138
1	1104	69.089683699069	139
1	1104	69.089683699069	140
1	1129	70.720736630231	141
1	1129	70.720736630231	142
1	1129	70.720736630231	143
1	1155	71.90328266883	144
1	1155	71.90328266883	145
1	1155	71.90328266883	146
1	1180	72.925493296636	147
1	1180	72.925493296636	148
1	1180	72.925493296636	149
1	1201	74.294649218526	150
1	1201	74.294649218526	151
1	1201	74.294649218526	152
1	1227	76.290080887863	153
1	1227	76.290080887863	154
1	1227	76.290080887863	155
1	1248	77.342847073665	156
1	1248	77.342847073665	157
1	1248	77.342847073665	158
1	1273	78.698760412848	159
1	1273	78.698760412848	160
1	1273	78.698760412848	161
1	1298	80.563868590047	162
1	1298	80.563868590047	163
1	1298	80.563868590047	164
1	1324	82.117836322092	165
1	1324	82.117836322092	166
1	1324	82.117836322092	167
1	1341	83.842702064483	168
1	1341	83.842702064483	169
1	1341	83.842702064483	170
1	1367	85.648265414152	171
1	1367	85.648265414152	172
1	1367	85.648265414152	173
1	1389	87.249160829234	174
1	1389	87.249160829234	175
1	1389	87.249160829234	176
1	1413	88.760448367572	177
1	1413	88.760448367572	178
1	1413	88.760448367572	179
1	1438	90.054194881636	180
1	1438	90.054194881636	181
1	1438	90.054194881636	182
1	1464	91.874428733484	183
1	1464	91.874428733484	184
1	1464	91.874428733484	185
1	1488	93.444295128209	186
1	1488	93.444295128209	187
1	1488	93.444295128209	188
1	1513	95.218250712865	189
1	1513	95.218250712865	190
1	1513	95.218250712865	191
1	1541	96.896095214828	192
1	1541	96.896095214828	193
1	1541	96.896095214828	194
1	1566	100.361423340581	195
1	1566	100.361423340581	196
1	1566	100.361423340581	197
1	1588	101.579006285807	198
1	1588	101.579006285807	199
1	1588	101.579006285807	200
1	1615	103.547403660369	201
1	1615	103.547403660369	202
1	1615	103.547403660369	203
1	1637	105.102279067984	204
1	1637	105.102279067984	205
1	1637	105.102279067984	206
1	1665	106.527779966943	207
1	1665	106.527779966943	208
1	1665	106.527779966943	209
1	1688	108.168227529422	210
1	1688	108.168227529422	211
1	1688	108.168227529422	212
1	1709	109.933582514373	213
1	1709	109.933582514373	214
1	1709	109.933582514373	215
1	1734	111.699970845508	216
1	1734	111.699970845508	217
1	1734	111.699970845508	218
1	1760	113.68295567591	219
1	1760	113.68295567591	220
1	1760	113.68295567591	221
1	1788	115.343043395745	222
1	1788	115.343043395745	223
1	1788	115.343043395745	224
1	1813	116.602836539351	225
1	1813	116.602836539351	226
1	1813	116.602836539351	227
1	1834	118.275552961987	228
1	1834	118.275552961987	229
1	1834	118.275552961987	230
1	1855	119.88351382895	231
1	1855	119.88351382895	232
1	1855	119.88351382895	233
1	1880	121.605253854208	234
1	1880	121.605253854208	235
1	1880	121.605253854208	236
1	1906	123.244848494392	237
1	1906	123.244848494392	238
1	1906	123.244848494392	239
1	1930	125.181539248839	240
1	1930	125.181539248839	241
1	1930	125.181539248839	242
1	1962	126.884777358817	243
1	1962	126.884777358817	244
1	1962	126.884777358817	245
1	1980	128.794034722687	246
1	1980	128.794034722687	247
1	1980	128.794034722687	248
1	2013	130.530036164244	249
1	2013	130.530036164244	250
1	2013	130.530036164244	251
1	2031	132.118754869041	252
1	2031	132.118754869041	253
1	2031	132.118754869041	254
1	2059	133.657465420187	255
1	2059	133.657465420187	256
1	2059	133.657465420187	257
1	2080	134.647796238016	258
1	2080	134.647796238016	259
1	2080	134.647796238016	260
1	2106	136.411477683636	261
1	2106	136.411477683636	262
1	2106	136.411477683636	263
1	2129	138.235340928971	264
1	2129	138.235340928971	265
1	2129	138.235340928971	266
1	2152	139.635346731814	267
1	2152	139.635346731814	268
1	2152	139.635346731814	269
1	2183	141.263237503793	270
1	2183	141.263237503793	271
1	2183	141.263237503793	272
1	2201	142.429460567232	273
1	2201	142.429460567232	274
1	2201	142.429460567232	275
1	2226	144.227821037031	276
1	2226	144.227821037031	277
1	2226	144.227821037031	278
1	2258	145.442701116897	279
1	2258	145.442701116897	280
1	2258	145.442701116897	281
1	2283	147.117075452429	282
1	2283	147.117075452429	283
1	2283	147.117075452429	284
1	2301	149.046788786403	285
1	2301	149.046788786403	286
1	2301	149.046788786403	287
1	2326	150.869819135517	288
1	2326	150.869819135517	289
1	2326	150.869819135517	290
1	2348	152.561705916677	291
1	2348	152.561705916677	292
1	2348	152.561705916677	293
1	2380	154.048398299093	294
1	2380	154.048398299093	295
1	2380	154.048398299093	296
1	2398	155.133275630151	297
1	2398	155.133275630151	298
1	2398	155.133275630151	299
1	2423	156.178906639092	300
1	2423	156.178906639092	301
1	2423	156.178906639092	302
1	2448	157.505162261625	303
1	2448	157.505162261625	304
1	2448	157.505162261625	305
1	2466	159.126834762238	306
1	2466	159.126834762238	307
1	2466	159.126834762238	308
1	2488	160.374625052034	309
1	2488	160.374625052034	310
1	2488	160.374625052034	311
1	2506	161.500784086981	312
1	2506	161.500784086981	313
1	2506	161.500784086981	314
1	2536	163.239000436044	315
1	2536	163.239000436044	316
1	2536	163.239000436044	317
1	2553	165.187094102633	318
1	2553	165.187094102633	319
1	2553	165.187094102633	320
1	2579	167.13022745867	321
1	2579	167.13022745867	322
1	2579	167.13022745867	323
1	2604	168.408263058219	324
1	2604	168.408263058219	325
1	2604	168.408263058219	326
1	2635	170.076916901752	327
1	2635	170.076916901752	328
1	2635	170.076916901752	329
1	2653	171.512838602435	330
1	2653	171.512838602435	331
1	2653	171.512838602435	332
1	2678	172.935821905344	333
1	2678	172.935821905344	334
1	2678	172.935821905344	335
1	2708	174.034124695628	336
1	2708	174.034124695628	337
1	2708	174.034124695628	338
1	2726	175.285969962719	339
1	2726	175.285969962719	340
1	2726	175.285969962719	341
1	2747	176.73218384097	342
1	2747	176.73218384097	343
1	2747	176.73218384097	344
1	2772	178.571307143003	345
1	2772	178.571307143003	346
1	2772	178.571307143003	347
1	2797	179.682621286023	348
1	2797	179.682621286023	349
1	2797	179.682621286023	350
1	2819	180.815709261284	351
1	2819	180.815709261284	352
1	2819	180.815709261284	353
1	2844	182.530607845727	354
1	2844	182.530607845727	355
1	2844	182.530607845727	356
1	2876	184.354049772506	357
1	2876	184.354049772506	358
1	2876	184.354049772506	359
1	2894	185.805771082377	360
1	2894	185.805771082377	361
1	2894	185.805771082377	362
1	2919	187.59017132492	363
1	2919	187.59017132492	364
1	2919	187.59017132492	365
1	2951	188.662807807869	366
1	2951	188.662807807869	367
1	2951	188.662807807869	368
1	2966	190.337117087989	369
1	2966	190.337117087989	370
1	2966	190.337117087989	371
1	2995	192.357475268499	372
1	2995	192.357475268499	373
1	2995	192.357475268499	374
1	3010	193.416192231164	375
1	3010	193.416192231164	376
1	3010	193.416192231164	377
1	3036	195.391792717902	378
1	3036	195.391792717902	379
1	3036	195.391792717902	380
1	3070	198.359908289614	381
1	3070	198.359908289614	382
1	3070	198.359908289614	383
1	3096	200.05910986415	384
1	3096	200.05910986415	385
1	3096	200.05910986415	386
1	3120	201.678383883497	387
1	3120	201.678383883497	388
1	3120	201.678383883497	389
1	3146	202.805464937091	390
1	3146	202.805464937091	391
1	3146	202.805464937091	392
1	3168	204.022148630358	393
1	3168	204.022148630358	394
1	3168	204.022148630358	395
1	3192	205.23074761032	396
1	3192	205.23074761032	397
1	3192	205.23074761032	398
1	3217	206.259497114945	399
1	3217	206.259497114945	400
1	3217	206.259497114945	401
1	3246	207.639844644707	402
1	3246	207.639844644707	403
1	3246	207.639844644707	404
1	3263	209.017370122063	405
1	3263	209.017370122063	406
1	3263	209.017370122063	407
1	3288	210.919203416962	408
1	3288	210.919203416962	409
1	3288	210.919203416962	410
1	3313	212.818451391696	411
1	3313	212.818451391696	412
1	3313	212.818451391696	413
1	3336	214.096800448074	414
1	3336	214.096800448074	415
1	3336	214.096800448074	416
1	3360	215.605302396499	417
1	3360	215.605302396499	418
1	3360	215.605302396499	419
1	3383	217.248932692039	420
1	3383	217.248932692039	421
1	3383	217.248932692039	422
1	3407	218.314708731127	423
1	3407	218.314708731127	424
1	3407	218.314708731127	425
1	3432	219.674477765184	426
1	3432	219.674477765184	427
1	3432	219.674477765184	428
1	3457	220.978325503643	429
1	3457	220.978325503643	430
1	3457	220.978325503643	431
1	3482	222.267467631604	432
1	3482	222.267467631604	433
1	3482	222.267467631604	434
1	3508	224.247190259318	435
1	3508	224.247190259318	436
1	3508	224.247190259318	437
1	3533	226.065944094082	438
1	3533	226.065944094082	439
1	3533	226.065944094082	440
1	3560	229.171237969194	441
1	3560	229.171237969194	442
1	3560	229.171237969194	443
1	3593	230.50454395725	444
1	3593	230.50454395725	445
1	3593	230.50454395725	446
1	3607	231.779403252078	447
1	3607	231.779403252078	448
1	3607	231.779403252078	449
1	3633	233.763220516484	450
1	3633	233.763220516484	451
1	3633	233.763220516484	452
1	3657	235.330805280618	453
1	3657	235.330805280618	454
1	3657	235.330805280618	455
1	3680	236.64734394328	456
1	3680	236.64734394328	457
1	3680	236.64734394328	458
1	3711	238.128845483023	459
1	3711	238.128845483023	460
1	3711	238.128845483023	461
1	3729	239.454423705364	462
1	3729	239.454423705364	463
1	3729	239.454423705364	464
2	8	0.218066095948	0
2	8	0.218066095948	1
2	8	0.218066095948	2
2	34	2.121033415895	3
2	34	2.121033415895	4
2	34	2.121033415895	5
2	60	4.123670501296	6
2	60	4.123670501296	7
2	60	4.123670501296	8
2	80	5.551535898816	9
2	80	5.551535898816	10
2	80	5.551535898816	11
2	101	6.781820840312	12
2	101	6.781820840312	13
2	101	6.781820840312	14
2	120	8.250679588268	15
2	120	8.250679588268	16
2	120	8.250679588268	17
2	148	10.169255846782	18
2	148	10.169255846782	19
2	148	10.169255846782	20
2	176	11.230624802448	21
2	176	11.230624802448	22
2	176	11.230624802448	23
2	195	12.324777607306	24
2	195	12.324777607306	25
2	195	12.324777607306	26
2	223	13.510287098726	27
2	223	13.510287098726	28
2	223	13.510287098726	29
2	245	14.578846331514	30
2	245	14.578846331514	31
2	245	14.578846331514	32
2	264	17.32985487471	33
2	264	17.32985487471	34
2	264	17.32985487471	35
2	293	19.258090523624	36
2	293	19.258090523624	37
2	293	19.258090523624	38
2	322	21.076035964558	39
2	322	21.076035964558	40
2	322	21.076035964558	41
2	346	22.155093151747	42
2	346	22.155093151747	43
2	346	22.155093151747	44
2	362	24.108337274411	45
2	362	24.108337274411	46
2	362	24.108337274411	47
2	384	25.447297415094	48
2	384	25.447297415094	49
2	384	25.447297415094	50
2	405	27.373304917296	51
2	405	27.373304917296	52
2	405	27.373304917296	53
2	437	28.548719644396	54
2	437	28.548719644396	55
2	437	28.548719644396	56
2	466	29.758201885279	57
2	466	29.758201885279	58
2	466	29.758201885279	59
2	484	31.648373819401	60
2	484	31.648373819401	61
2	484	31.648373819401	62
2	512	32.883817096443	63
2	512	32.883817096443	64
2	512	32.883817096443	65
2	530	34.709549661828	66
2	530	34.709549661828	67
2	530	34.709549661828	68
2	546	35.925013846204	69
2	546	35.925013846204	70
2	546	35.925013846204	71
2	577	37.619745849362	72
2	577	37.619745849362	73
2	577	37.619745849362	74
2	602	38.658706001905	75
2	602	38.658706001905	76
2	602	38.658706001905	77
2	621	40.184637008726	78
2	621	40.184637008726	79
2	621	40.184637008726	80
2	653	41.73371237091	81
2	653	41.73371237091	82
2	653	41.73371237091	83
2	677	42.986402878086	84
2	677	42.986402878086	85
2	677	42.986402878086	86
2	695	44.481005985067	87
2	695	44.481005985067	88
2	695	44.481005985067	89
2	718	45.543658099743	90
2	718	45.543658099743	91
2	718	45.543658099743	92
2	742	47.468395574841	93
2	742	47.468395574841	94
2	742	47.468395574841	95
2	771	49.415008128873	96
2	771	49.415008128873	97
2	771	49.415008128873	98
2	793	50.841991611898	99
2	793	50.841991611898	100
2	793	50.841991611898	101
2	822	52.362762433878	102
2	822	52.362762433878	103
2	822	52.362762433878	104
2	843	53.382612717546	105
2	843	53.382612717546	106
2	843	53.382612717546	107
2	871	55.075150087997	108
2	871	55.075150087997	109
2	871	55.075150087997	110
2	896	56.311000021492	111
2	896	56.311000021492	112
2	896	56.311000021492	113
2	915	57.601681129822	114
2	915	57.601681129822	115
2	915	57.601681129822	116
2	942	58.858100591548	117
2	942	58.858100591548	118
2	942	58.858100591548	119
2	971	60.853463756824	120
2	971	60.853463756824	121
2	971	60.853463756824	122
2	989	62.065421699371	123
2	989	62.065421699371	124
2	989	62.065421699371	125
2	1022	63.733538650811	126
2	1022	63.733538650811	127
2	1022	63.733538650811	128
2	1037	65.503300023737	129
2	1037	65.503300023737	130
2	1037	65.503300023737	131
2	1069	66.872740945922	132
2	1069	66.872740945922	133
2	1069	66.872740945922	134
2	1092	68.097982448949	135
2	1092	68.097982448949	136
2	1092	68.097982448949	137
2	1109	69.100487207607	138
2	1109	69.100487207607	139
2	1109	69.100487207607	140
2	1133	70.737160488097	141
2	1133	70.737160488097	142
2	1133	70.737160488097	143
2	1166	71.931946725797	144
2	1166	71.931946725797	145
2	1166	71.931946725797	146
2	1186	72.959778726407	147
2	1186	72.959778726407	148
2	1186	72.959778726407	149
2	1206	74.307105611646	150
2	1206	74.307105611646	151
2	1206	74.307105611646	152
2	1238	76.311508826573	153
2	1238	76.311508826573	154
2	1238	76.311508826573	155
2	1257	77.369167334696	156
2	1257	77.369167334696	157
2	1257	77.369167334696	158
2	1288	78.740347813289	159
2	1288	78.740347813289	160
2	1288	78.740347813289	161
2	1306	80.582790470451	162
2	1306	80.582790470451	163
2	1306	80.582790470451	164
2	1331	82.12932771366	165
2	1331	82.12932771366	166
2	1331	82.12932771366	167
2	1346	83.852875199873	168
2	1346	83.852875199873	169
2	1346	83.852875199873	170
2	1377	85.669593367049	171
2	1377	85.669593367049	172
2	1377	85.669593367049	173
2	1396	87.261119340641	174
2	1396	87.261119340641	175
2	1396	87.261119340641	176
2	1419	88.7780892928	177
2	1419	88.7780892928	178
2	1419	88.7780892928	179
2	1442	90.06689794184	180
2	1442	90.06689794184	181
2	1442	90.06689794184	182
2	1470	91.885698214771	183
2	1470	91.885698214771	184
2	1470	91.885698214771	185
2	1496	93.478945988421	186
2	1496	93.478945988421	187
2	1496	93.478945988421	188
2	1524	95.244960996532	189
2	1524	95.244960996532	190
2	1524	95.244960996532	191
2	1550	96.915660556661	192
2	1550	96.915660556661	193
2	1550	96.915660556661	194
2	1571	100.373721670779	195
2	1571	100.373721670779	196
2	1571	100.373721670779	197
2	1594	101.592311547599	198
2	1594	101.592311547599	199
2	1594	101.592311547599	200
2	1623	103.579237184239	201
2	1623	103.579237184239	202
2	1623	103.579237184239	203
2	1644	105.124294865532	204
2	1644	105.124294865532	205
2	1644	105.124294865532	206
2	1669	106.550114539563	207
2	1669	106.550114539563	208
2	1669	106.550114539563	209
2	1694	108.179417174385	210
2	1694	108.179417174385	211
2	1694	108.179417174385	212
2	1717	109.95652915126	213
2	1717	109.95652915126	214
2	1717	109.95652915126	215
2	1738	111.710956276499	216
2	1738	111.710956276499	217
2	1738	111.710956276499	218
2	1767	113.69947302238	219
2	1767	113.69947302238	220
2	1767	113.69947302238	221
2	1799	115.3690174468	222
2	1799	115.3690174468	223
2	1799	115.3690174468	224
2	1824	116.622977849031	225
2	1824	116.622977849031	226
2	1824	116.622977849031	227
2	1838	118.294128291726	228
2	1838	118.294128291726	229
2	1838	118.294128291726	230
2	1862	119.899445505974	231
2	1862	119.899445505974	232
2	1862	119.899445505974	233
2	1887	121.624186101664	234
2	1887	121.624186101664	235
2	1887	121.624186101664	236
2	1912	123.257252434198	237
2	1912	123.257252434198	238
2	1912	123.257252434198	239
2	1935	125.201761007948	240
2	1935	125.201761007948	241
2	1935	125.201761007948	242
2	1970	126.92051170236	243
2	1970	126.92051170236	244
2	1970	126.92051170236	245
2	1987	128.808316334699	246
2	1987	128.808316334699	247
2	1987	128.808316334699	248
2	2020	130.544654589373	249
2	2020	130.544654589373	250
2	2020	130.544654589373	251
2	2038	132.140109857301	252
2	2038	132.140109857301	253
2	2038	132.140109857301	254
2	2070	133.677911607239	255
2	2070	133.677911607239	256
2	2070	133.677911607239	257
2	2087	134.667160193813	258
2	2087	134.667160193813	259
2	2087	134.667160193813	260
2	2116	136.45091194908	261
2	2116	136.45091194908	262
2	2116	136.45091194908	263
2	2137	138.247995886108	264
2	2137	138.247995886108	265
2	2137	138.247995886108	266
2	2159	139.65638645921	267
2	2159	139.65638645921	268
2	2159	139.65638645921	269
2	2187	141.29999701749	270
2	2187	141.29999701749	271
2	2187	141.29999701749	272
2	2205	142.440126559359	273
2	2205	142.440126559359	274
2	2205	142.440126559359	275
2	2231	144.24273378473	276
2	2231	144.24273378473	277
2	2231	144.24273378473	278
2	2266	145.463185157291	279
2	2266	145.463185157291	280
2	2266	145.463185157291	281
2	2291	147.130955590075	282
2	2291	147.130955590075	283
2	2291	147.130955590075	284
2	2306	149.0639707206	285
2	2306	149.0639707206	286
2	2306	149.0639707206	287
2	2330	150.884341981917	288
2	2330	150.884341981917	289
2	2330	150.884341981917	290
2	2363	152.61604106108	291
2	2363	152.61604106108	292
2	2363	152.61604106108	293
2	2384	154.058465914707	294
2	2384	154.058465914707	295
2	2384	154.058465914707	296
2	2405	155.152526004136	297
2	2405	155.152526004136	298
2	2405	155.152526004136	299
2	2428	156.197037945004	300
2	2428	156.197037945004	301
2	2428	156.197037945004	302
2	2453	157.518938118298	303
2	2453	157.518938118298	304
2	2453	157.518938118298	305
2	2471	159.142999463909	306
2	2471	159.142999463909	307
2	2471	159.142999463909	308
2	2493	160.391063699753	309
2	2493	160.391063699753	310
2	2493	160.391063699753	311
2	2510	161.516127360858	312
2	2510	161.516127360858	313
2	2510	161.516127360858	314
2	2540	163.248625239503	315
2	2540	163.248625239503	316
2	2540	163.248625239503	317
2	2557	165.197851475735	318
2	2557	165.197851475735	319
2	2557	165.197851475735	320
2	2586	167.147259635136	321
2	2586	167.147259635136	322
2	2586	167.147259635136	323
2	2611	168.428100879729	324
2	2611	168.428100879729	325
2	2611	168.428100879729	326
2	2643	170.10353995022	327
2	2643	170.10353995022	328
2	2643	170.10353995022	329
2	2660	171.527697669753	330
2	2660	171.527697669753	331
2	2660	171.527697669753	332
2	2683	172.953142811339	333
2	2683	172.953142811339	334
2	2683	172.953142811339	335
2	2715	174.056222304663	336
2	2715	174.056222304663	337
2	2715	174.056222304663	338
2	2737	175.318763150761	339
2	2737	175.318763150761	340
2	2737	175.318763150761	341
2	2758	176.808174523022	342
2	2758	176.808174523022	343
2	2758	176.808174523022	344
2	2776	178.581832051107	345
2	2776	178.581832051107	346
2	2776	178.581832051107	347
2	2801	179.69662929369	348
2	2801	179.69662929369	349
2	2801	179.69662929369	350
2	2825	180.831193928401	351
2	2825	180.831193928401	352
2	2825	180.831193928401	353
2	2855	182.560928136607	354
2	2855	182.560928136607	355
2	2855	182.560928136607	356
2	2884	184.378278906804	357
2	2884	184.378278906804	358
2	2884	184.378278906804	359
2	2902	185.828064476836	360
2	2902	185.828064476836	361
2	2902	185.828064476836	362
2	2927	187.606134304796	363
2	2927	187.606134304796	364
2	2927	187.606134304796	365
2	2955	188.674772721664	366
2	2955	188.674772721664	367
2	2955	188.674772721664	368
2	2974	190.359180894259	369
2	2974	190.359180894259	370
2	2974	190.359180894259	371
2	3003	192.385988376619	372
2	3003	192.385988376619	373
2	3003	192.385988376619	374
2	3015	193.436529520628	375
2	3015	193.436529520628	376
2	3015	193.436529520628	377
2	3043	195.409006100399	378
2	3043	195.409006100399	379
2	3043	195.409006100399	380
2	3075	198.370869665303	381
2	3075	198.370869665303	382
2	3075	198.370869665303	383
2	3106	200.08067825787	384
2	3106	200.08067825787	385
2	3106	200.08067825787	386
2	3126	201.693597044835	387
2	3126	201.693597044835	388
2	3126	201.693597044835	389
2	3153	202.81733800844	390
2	3153	202.81733800844	391
2	3153	202.81733800844	392
2	3174	204.045272043664	393
2	3174	204.045272043664	394
2	3174	204.045272043664	395
2	3199	205.245871892233	396
2	3199	205.245871892233	397
2	3199	205.245871892233	398
2	3223	206.279581451155	399
2	3223	206.279581451155	400
2	3223	206.279581451155	401
2	3250	207.643735930503	402
2	3250	207.643735930503	403
2	3250	207.643735930503	404
2	3270	209.04288195255	405
2	3270	209.04288195255	406
2	3270	209.04288195255	407
2	3293	210.933446355316	408
2	3293	210.933446355316	409
2	3293	210.933446355316	410
2	3321	212.833334674778	411
2	3321	212.833334674778	412
2	3321	212.833334674778	413
2	3350	214.131463359904	414
2	3350	214.131463359904	415
2	3350	214.131463359904	416
2	3368	215.63547633787	417
2	3368	215.63547633787	418
2	3368	215.63547633787	419
2	3394	217.269139112911	420
2	3394	217.269139112911	421
2	3394	217.269139112911	422
2	3411	218.346843110862	423
2	3411	218.346843110862	424
2	3411	218.346843110862	425
2	3436	219.68970407842	426
2	3436	219.68970407842	427
2	3436	219.68970407842	428
2	3464	220.9918857891	429
2	3464	220.9918857891	430
2	3464	220.9918857891	431
2	3489	222.290347573174	432
2	3489	222.290347573174	433
2	3489	222.290347573174	434
2	3515	224.270197803494	435
2	3515	224.270197803494	436
2	3515	224.270197803494	437
2	3539	226.082911913581	438
2	3539	226.082911913581	439
2	3539	226.082911913581	440
2	3564	229.181767168953	441
2	3564	229.181767168953	442
2	3564	229.181767168953	443
2	3600	230.520673904118	444
2	3600	230.520673904118	445
2	3600	230.520673904118	446
2	3614	231.803933976188	447
2	3614	231.803933976188	448
2	3614	231.803933976188	449
2	3639	233.774447174046	450
2	3639	233.774447174046	451
2	3639	233.774447174046	452
2	3669	235.368532504838	453
2	3669	235.368532504838	454
2	3669	235.368532504838	455
2	3687	236.660075494127	456
2	3687	236.660075494127	457
2	3687	236.660075494127	458
2	3719	238.160112800441	459
2	3719	238.160112800441	460
2	3719	238.160112800441	461
2	3733	239.466148713786	462
2	3733	239.466148713786	463
2	3733	239.466148713786	464
3	9	0.223088800394	0
3	9	0.223088800394	1
3	30	2.113453601012	2
3	30	2.113453601012	3
3	58	4.120764242729	4
3	58	4.120764242729	5
3	72	5.536100298903	6
3	72	5.536100298903	7
3	94	6.763737990342	8
3	94	6.763737990342	9
3	119	8.248350660245	10
3	119	8.248350660245	11
3	141	10.151454782942	12
3	141	10.151454782942	13
3	165	11.200879814771	14
3	165	11.200879814771	15
3	204	12.337789583747	16
3	204	12.337789583747	17
3	215	13.492230335387	18
3	215	13.492230335387	19
3	241	14.572304342313	20
3	241	14.572304342313	21
3	254	15.662039902758	22
3	254	15.662039902758	23
3	266	17.339205654986	24
3	266	17.339205654986	25
3	289	19.246892956035	26
3	289	19.246892956035	27
3	310	21.020098397773	28
3	310	21.020098397773	29
3	335	22.122898966871	30
3	335	22.122898966871	31
3	380	25.440578456681	32
3	380	25.440578456681	33
3	417	27.404837016013	34
3	417	27.404837016013	35
3	426	28.524692251553	36
3	426	28.524692251553	37
3	451	29.664584770202	38
3	451	29.664584770202	39
3	485	31.650152899035	40
3	485	31.650152899035	41
3	501	32.817996453092	42
3	501	32.817996453092	43
3	523	34.685204877761	44
3	523	34.685204877761	45
3	542	35.91623836755	46
3	542	35.91623836755	47
3	570	37.597694553243	48
3	570	37.597694553243	49
3	591	38.614532605121	50
3	591	38.614532605121	51
3	617	40.181147957795	52
3	617	40.181147957795	53
3	641	41.70507056562	54
3	641	41.70507056562	55
3	666	42.956707154537	56
3	666	42.956707154537	57
3	688	44.468765998579	58
3	688	44.468765998579	59
3	710	45.524755322863	60
3	710	45.524755322863	61
3	736	47.454612414337	62
3	736	47.454612414337	63
3	760	49.3522804981	64
3	760	49.3522804981	65
3	785	50.806761402671	66
3	785	50.806761402671	67
3	810	52.326255188168	68
3	810	52.326255188168	69
3	835	53.351073763951	70
3	835	53.351073763951	71
3	860	55.032481593393	72
3	860	55.032481593393	73
3	885	56.245035624685	74
3	885	56.245035624685	75
3	911	57.596449947772	76
3	911	57.596449947772	77
3	935	58.843799439486	78
3	935	58.843799439486	79
3	961	60.834442357099	80
3	961	60.834442357099	81
3	982	62.043026258095	82
3	982	62.043026258095	83
3	1007	63.631760441829	84
3	1007	63.631760441829	85
3	1054	66.810961223092	86
3	1054	66.810961223092	87
3	1091	68.089068451248	88
3	1091	68.089068451248	89
3	1105	69.097827601766	90
3	1105	69.097827601766	91
3	1142	70.765251932596	92
3	1142	70.765251932596	93
3	1154	71.901898038485	94
3	1154	71.901898038485	95
3	1179	72.917388744991	96
3	1179	72.917388744991	97
3	1202	74.303275351505	98
3	1202	74.303275351505	99
3	1226	76.281656750498	100
3	1226	76.281656750498	101
3	1256	77.367875307461	102
3	1256	77.367875307461	103
3	1274	78.699954284543	104
3	1274	78.699954284543	105
3	1295	80.551980171	106
3	1295	80.551980171	107
3	1320	82.0940531674	108
3	1320	82.0940531674	109
3	1342	83.8448938647	110
3	1342	83.8448938647	111
3	1366	85.645279775278	112
3	1366	85.645279775278	113
3	1388	87.24690024421	114
3	1388	87.24690024421	115
3	1414	88.770218067801	116
3	1414	88.770218067801	117
3	1443	90.069518858037	118
3	1443	90.069518858037	119
3	1463	91.87441991194	120
3	1463	91.87441991194	121
3	1489	93.445622367412	122
3	1489	93.445622367412	123
3	1514	95.224753587941	124
3	1514	95.224753587941	125
3	1538	96.885578248681	126
3	1538	96.885578248681	127
3	1567	100.368584045837	128
3	1567	100.368584045837	129
3	1587	101.571460696428	130
3	1587	101.571460696428	131
3	1612	103.532662335817	132
3	1612	103.532662335817	133
3	1641	105.113033872757	134
3	1641	105.113033872757	135
3	1662	106.505609224053	136
3	1662	106.505609224053	137
3	1687	108.164947293591	138
3	1687	108.164947293591	139
3	1710	109.936164857678	140
3	1710	109.936164857678	141
3	1753	111.744600524211	142
3	1753	111.744600524211	143
3	1759	113.679616521674	144
3	1759	113.679616521674	145
3	1784	115.321335270835	146
3	1784	115.321335270835	147
3	1809	116.590771436531	148
3	1809	116.590771436531	149
3	1849	118.324323443656	150
3	1849	118.324323443656	151
3	1856	119.886108175561	152
3	1856	119.886108175561	153
3	1881	121.610871947805	154
3	1881	121.610871947805	155
3	1905	123.243993627535	156
3	1905	123.243993627535	157
3	1942	125.215687293131	158
3	1942	125.215687293131	159
3	1955	126.857594122952	160
3	1955	126.857594122952	161
3	1981	128.796809299425	162
3	1981	128.796809299425	163
3	2005	130.503646869303	164
3	2005	130.503646869303	165
3	2030	132.118565179425	166
3	2030	132.118565179425	167
3	2055	133.63562663692	168
3	2055	133.63562663692	169
3	2081	134.654712494881	170
3	2081	134.654712494881	171
3	2105	136.40419327723	172
3	2105	136.40419327723	173
3	2126	138.222666804473	174
3	2126	138.222666804473	175
3	2151	139.634385940162	176
3	2151	139.634385940162	177
3	2176	141.180565013367	178
3	2176	141.180565013367	179
3	2220	142.477045078644	180
3	2220	142.477045078644	181
3	2227	144.234429201928	182
3	2227	144.234429201928	183
3	2251	145.39471790382	184
3	2251	145.39471790382	185
3	2276	147.083927406924	186
3	2276	147.083927406924	187
3	2307	149.067739147033	188
3	2307	149.067739147033	189
3	2342	150.92682780628	190
3	2342	150.92682780628	191
3	2353	152.59431836489	192
3	2353	152.59431836489	193
3	2373	153.99590230873	194
3	2373	153.99590230873	195
3	2399	155.140589703809	196
3	2399	155.140589703809	197
3	2429	156.200103971717	198
3	2429	156.200103971717	199
3	2449	157.515059516838	200
3	2449	157.515059516838	201
3	2479	159.157949729925	202
3	2479	159.157949729925	203
3	2497	160.396769183707	204
3	2497	160.396769183707	205
3	2512	161.523588273621	206
3	2512	161.523588273621	207
3	2528	163.205312357759	208
3	2528	163.205312357759	209
3	2559	165.200413811049	210
3	2559	165.200413811049	211
3	2578	167.129925931512	212
3	2578	167.129925931512	213
3	2603	168.406613083416	214
3	2603	168.406613083416	215
3	2628	170.047264347522	216
3	2628	170.047264347522	217
3	2654	171.51391468924	218
3	2654	171.51391468924	219
3	2684	172.953927265885	220
3	2684	172.953927265885	221
3	2700	174.009976935312	222
3	2700	174.009976935312	223
3	2725	175.28369152094	224
3	2725	175.28369152094	225
3	2748	176.735494232852	226
3	2748	176.735494232852	227
3	2782	178.602642240069	228
3	2782	178.602642240069	229
3	2802	179.701621097708	230
3	2802	179.701621097708	231
3	2820	180.823884535232	232
3	2820	180.823884535232	233
3	2845	182.535590061469	234
3	2845	182.535590061469	235
3	2869	184.331778800593	236
3	2869	184.331778800593	237
3	2895	185.809927280849	238
3	2895	185.809927280849	239
3	2920	187.590776067398	240
3	2920	187.590776067398	241
3	2944	188.63657428082	242
3	2944	188.63657428082	243
3	2967	190.342392265325	244
3	2967	190.342392265325	245
3	2988	192.327717176278	246
3	2988	192.327717176278	247
3	3023	193.451920114071	248
3	3023	193.451920114071	249
3	3035	195.39009463727	250
3	3035	195.39009463727	251
3	3060	196.939523083669	252
3	3060	196.939523083669	253
3	3071	198.366800581791	254
3	3071	198.366800581791	255
3	3095	200.050916715601	256
3	3095	200.050916715601	257
3	3121	201.684704133969	258
3	3121	201.684704133969	259
3	3145	202.798166302228	260
3	3145	202.798166302228	261
3	3167	204.015245252845	262
3	3167	204.015245252845	263
3	3193	205.235612040221	264
3	3193	205.235612040221	265
3	3222	206.273524382053	266
3	3222	206.273524382053	267
3	3238	207.547592079548	268
3	3238	207.547592079548	269
3	3264	209.02407487899	270
3	3264	209.02407487899	271
3	3285	210.901067374997	272
3	3285	210.901067374997	273
3	3310	212.801750658495	274
3	3310	212.801750658495	275
3	3335	214.09006772865	276
3	3335	214.09006772865	277
3	3361	215.609322141416	278
3	3361	215.609322141416	279
3	3382	217.241863400222	280
3	3382	217.241863400222	281
3	3426	218.379811722649	282
3	3426	218.379811722649	283
3	3441	219.705805101187	284
3	3441	219.705805101187	285
3	3458	220.979014682259	286
3	3458	220.979014682259	287
3	3483	222.274022285886	288
3	3483	222.274022285886	289
3	3507	224.245735644457	290
3	3507	224.245735644457	291
3	3532	226.060494943091	292
3	3532	226.060494943091	293
3	3573	229.198017093733	294
3	3573	229.198017093733	295
3	3585	230.471993031469	296
3	3585	230.471993031469	297
3	3608	231.786946325087	298
3	3608	231.786946325087	299
3	3632	233.762510531849	300
3	3632	233.762510531849	301
3	3679	236.639839772147	302
3	3679	236.639839772147	303
3	3704	238.076924499362	304
3	3704	238.076924499362	305
3	3734	239.467014631426	306
3	3734	239.467014631426	307
4	10	0.227595799025	0
4	10	0.227595799025	1
4	10	0.227595799025	2
4	54	4.105514255896	3
4	54	4.105514255896	4
4	54	4.105514255896	5
4	79	5.551233510294	6
4	79	5.551233510294	7
4	79	5.551233510294	8
4	102	6.783544439042	9
4	102	6.783544439042	10
4	102	6.783544439042	11
4	121	8.258251995464	12
4	121	8.258251995464	13
4	121	8.258251995464	14
4	147	10.167234032821	15
4	147	10.167234032821	16
4	147	10.167234032821	17
4	169	11.212260205384	18
4	169	11.212260205384	19
4	169	11.212260205384	20
4	194	12.320118547832	21
4	194	12.320118547832	22
4	194	12.320118547832	23
4	222	13.508927984135	24
4	222	13.508927984135	25
4	222	13.508927984135	26
4	265	17.332496008985	27
4	265	17.332496008985	28
4	265	17.332496008985	29
4	290	19.255686115698	30
4	290	19.255686115698	31
4	290	19.255686115698	32
4	313	21.045593999348	33
4	313	21.045593999348	34
4	313	21.045593999348	35
4	339	22.144603873083	36
4	339	22.144603873083	37
4	339	22.144603873083	38
4	361	24.104892479064	39
4	361	24.104892479064	40
4	361	24.104892479064	41
4	390	25.460174596031	42
4	390	25.460174596031	43
4	390	25.460174596031	44
4	409	27.388731675393	45
4	409	27.388731675393	46
4	409	27.388731675393	47
4	430	28.535281325428	48
4	430	28.535281325428	49
4	430	28.535281325428	50
4	454	29.679512177181	51
4	454	29.679512177181	52
4	454	29.679512177181	53
4	480	31.630043202534	54
4	480	31.630043202534	55
4	480	31.630043202534	56
4	504	32.849951945359	57
4	504	32.849951945359	58
4	504	32.849951945359	59
4	531	34.715488739151	60
4	531	34.715488739151	61
4	531	34.715488739151	62
4	553	35.949667858938	63
4	553	35.949667858938	64
4	553	35.949667858938	65
4	571	37.602149791672	66
4	571	37.602149791672	67
4	571	37.602149791672	68
4	594	38.629026494779	69
4	594	38.629026494779	70
4	594	38.629026494779	71
4	622	40.187320179864	72
4	622	40.187320179864	73
4	622	40.187320179864	74
4	645	41.716376778471	75
4	645	41.716376778471	76
4	645	41.716376778471	77
4	670	42.972079574807	78
4	670	42.972079574807	79
4	670	42.972079574807	80
4	696	44.481691102691	81
4	696	44.481691102691	82
4	696	44.481691102691	83
4	714	45.53497236002	84
4	714	45.53497236002	85
4	714	45.53497236002	86
4	743	47.471250832391	87
4	743	47.471250832391	88
4	743	47.471250832391	89
4	763	49.36623186106	90
4	763	49.36623186106	91
4	763	49.36623186106	92
4	792	50.835570294478	93
4	792	50.835570294478	94
4	792	50.835570294478	95
4	814	52.343545007026	96
4	814	52.343545007026	97
4	814	52.343545007026	98
4	842	53.377562724058	99
4	842	53.377562724058	100
4	842	53.377562724058	101
4	863	55.043500264334	102
4	863	55.043500264334	103
4	863	55.043500264334	104
4	888	56.269474522505	105
4	888	56.269474522505	106
4	888	56.269474522505	107
4	918	57.607008610866	108
4	918	57.607008610866	109
4	918	57.607008610866	110
4	943	58.859211770469	111
4	943	58.859211770469	112
4	943	58.859211770469	113
4	965	60.837530907687	114
4	965	60.837530907687	115
4	965	60.837530907687	116
4	990	62.068274461795	117
4	990	62.068274461795	118
4	990	62.068274461795	119
4	1010	63.681320000146	120
4	1010	63.681320000146	121
4	1010	63.681320000146	122
4	1036	65.503210725162	123
4	1036	65.503210725162	124
4	1036	65.503210725162	125
4	1057	66.834024853479	126
4	1057	66.834024853479	127
4	1057	66.834024853479	128
4	1083	68.060442605771	129
4	1083	68.060442605771	130
4	1083	68.060442605771	131
4	1110	69.105389592482	132
4	1110	69.105389592482	133
4	1110	69.105389592482	134
4	1134	70.740630445515	135
4	1134	70.740630445515	136
4	1134	70.740630445515	137
4	1161	71.920175770537	138
4	1161	71.920175770537	139
4	1161	71.920175770537	140
4	1187	72.965297164732	141
4	1187	72.965297164732	142
4	1187	72.965297164732	143
4	1214	74.319376907481	144
4	1214	74.319376907481	145
4	1214	74.319376907481	146
4	1230	76.29364040757	147
4	1230	76.29364040757	148
4	1230	76.29364040757	149
4	1252	77.354247425185	150
4	1252	77.354247425185	151
4	1252	77.354247425185	152
4	1278	78.709014270815	153
4	1278	78.709014270815	154
4	1278	78.709014270815	155
4	1299	80.569454017109	156
4	1299	80.569454017109	157
4	1299	80.569454017109	158
4	1323	82.115803641082	159
4	1323	82.115803641082	160
4	1323	82.115803641082	161
4	1349	83.862245992313	162
4	1349	83.862245992313	163
4	1349	83.862245992313	164
4	1373	85.658499942181	165
4	1373	85.658499942181	166
4	1373	85.658499942181	167
4	1392	87.257563422153	168
4	1392	87.257563422153	169
4	1392	87.257563422153	170
4	1418	88.777587002431	171
4	1418	88.777587002431	172
4	1418	88.777587002431	173
4	1444	90.071504928153	174
4	1444	90.071504928153	175
4	1444	90.071504928153	176
4	1471	91.887744126975	177
4	1471	91.887744126975	178
4	1471	91.887744126975	179
4	1495	93.478093011801	180
4	1495	93.478093011801	181
4	1495	93.478093011801	182
4	1518	95.229615572751	183
4	1518	95.229615572751	184
4	1518	95.229615572751	185
4	1542	96.896531426239	186
4	1542	96.896531426239	187
4	1542	96.896531426239	188
4	1572	100.375160228275	189
4	1572	100.375160228275	190
4	1572	100.375160228275	191
4	1600	101.615390791114	192
4	1600	101.615390791114	193
4	1600	101.615390791114	194
4	1616	103.547954888196	195
4	1616	103.547954888196	196
4	1616	103.547954888196	197
4	1645	105.126608760979	198
4	1645	105.126608760979	199
4	1645	105.126608760979	200
4	1670	106.55125039148	201
4	1670	106.55125039148	202
4	1670	106.55125039148	203
4	1695	108.182232046055	204
4	1695	108.182232046055	205
4	1695	108.182232046055	206
4	1716	109.947048518956	207
4	1716	109.947048518956	208
4	1716	109.947048518956	209
4	1744	111.727113892454	210
4	1744	111.727113892454	211
4	1744	111.727113892454	212
4	1763	113.692760623906	213
4	1763	113.692760623906	214
4	1763	113.692760623906	215
4	1787	115.334755217789	216
4	1787	115.334755217789	217
4	1787	115.334755217789	218
4	1812	116.601223556535	219
4	1812	116.601223556535	220
4	1812	116.601223556535	221
4	1839	118.297888638433	222
4	1839	118.297888638433	223
4	1839	118.297888638433	224
4	1863	119.900822222872	225
4	1863	119.900822222872	226
4	1863	119.900822222872	227
4	1891	121.635754928899	228
4	1891	121.635754928899	229
4	1891	121.635754928899	230
4	1913	123.262090081544	231
4	1913	123.262090081544	232
4	1913	123.262090081544	233
4	1934	125.192215783176	234
4	1934	125.192215783176	235
4	1934	125.192215783176	236
4	1958	126.870585707746	237
4	1958	126.870585707746	238
4	1958	126.870585707746	239
4	1988	128.814034586619	240
4	1988	128.814034586619	241
4	1988	128.814034586619	242
4	2008	130.516658534271	243
4	2008	130.516658534271	244
4	2008	130.516658534271	245
4	2037	132.131594104847	246
4	2037	132.131594104847	247
4	2037	132.131594104847	248
4	2058	133.648479314035	249
4	2058	133.648479314035	250
4	2058	133.648479314035	251
4	2088	134.670934965611	252
4	2088	134.670934965611	253
4	2088	134.670934965611	254
4	2109	136.414903589801	255
4	2109	136.414903589801	256
4	2109	136.414903589801	257
4	2130	138.235671009264	258
4	2130	138.235671009264	259
4	2130	138.235671009264	260
4	2158	139.654452988027	261
4	2158	139.654452988027	262
4	2158	139.654452988027	263
4	2179	141.198905534128	264
4	2179	141.198905534128	265
4	2179	141.198905534128	266
4	2211	142.459114916709	267
4	2211	142.459114916709	268
4	2211	142.459114916709	269
4	2232	144.243254224753	270
4	2232	144.243254224753	271
4	2232	144.243254224753	272
4	2254	145.432228704503	273
4	2254	145.432228704503	274
4	2254	145.432228704503	275
4	2279	147.106333623126	276
4	2279	147.106333623126	277
4	2279	147.106333623126	278
4	2305	149.06015065961	279
4	2305	149.06015065961	280
4	2305	149.06015065961	281
4	2338	150.908818364977	282
4	2338	150.908818364977	283
4	2338	150.908818364977	284
4	2352	152.58435962225	285
4	2352	152.58435962225	286
4	2352	152.58435962225	287
4	2376	154.034882347265	288
4	2376	154.034882347265	289
4	2376	154.034882347265	290
4	2409	155.166194681666	291
4	2409	155.166194681666	292
4	2409	155.166194681666	293
4	2427	156.193401484484	294
4	2427	156.193401484484	295
4	2427	156.193401484484	296
4	2459	157.531419236445	297
4	2459	157.531419236445	298
4	2459	157.531419236445	299
4	2470	159.139011309373	300
4	2470	159.139011309373	301
4	2470	159.139011309373	302
4	2492	160.385448402904	303
4	2492	160.385448402904	304
4	2492	160.385448402904	305
4	2511	161.518419806458	306
4	2511	161.518419806458	307
4	2511	161.518419806458	308
4	2531	163.21882818269	309
4	2531	163.21882818269	310
4	2531	163.21882818269	311
4	2558	165.198461000204	312
4	2558	165.198461000204	313
4	2558	165.198461000204	314
4	2585	167.145991732678	315
4	2585	167.145991732678	316
4	2585	167.145991732678	317
4	2610	168.426316672589	318
4	2610	168.426316672589	319
4	2610	168.426316672589	320
4	2631	170.05995141304	321
4	2631	170.05995141304	322
4	2631	170.05995141304	323
4	2661	171.5352898936	324
4	2661	171.5352898936	325
4	2661	171.5352898936	326
4	2682	172.94734766356	327
4	2682	172.94734766356	328
4	2682	172.94734766356	329
4	2703	174.020795099912	330
4	2703	174.020795099912	331
4	2703	174.020795099912	332
4	2729	175.294019201201	333
4	2729	175.294019201201	334
4	2729	175.294019201201	335
4	2752	176.742740472266	336
4	2752	176.742740472266	337
4	2752	176.742740472266	338
4	2785	178.608204043587	339
4	2785	178.608204043587	340
4	2785	178.608204043587	341
4	2803	179.706235774145	342
4	2803	179.706235774145	343
4	2803	179.706235774145	344
4	2824	180.829805721621	345
4	2824	180.829805721621	346
4	2824	180.829805721621	347
4	2849	182.544600563355	348
4	2849	182.544600563355	349
4	2849	182.544600563355	350
4	2872	184.344018630821	351
4	2872	184.344018630821	352
4	2872	184.344018630821	353
4	2901	185.82192905994	354
4	2901	185.82192905994	355
4	2901	185.82192905994	356
4	2926	187.605848587441	357
4	2926	187.605848587441	358
4	2926	187.605848587441	359
4	2947	188.651963406967	360
4	2947	188.651963406967	361
4	2947	188.651963406967	362
4	2973	190.352790682893	363
4	2973	190.352790682893	364
4	2973	190.352790682893	365
4	2991	192.342257119525	366
4	2991	192.342257119525	367
4	2991	192.342257119525	368
4	3014	193.428228191679	369
4	3014	193.428228191679	370
4	3014	193.428228191679	371
4	3042	195.403894050594	372
4	3042	195.403894050594	373
4	3042	195.403894050594	374
4	3063	196.96958318344	375
4	3063	196.96958318344	376
4	3063	196.96958318344	377
4	3078	198.379454717274	378
4	3078	198.379454717274	379
4	3078	198.379454717274	380
4	3099	200.069050985676	381
4	3099	200.069050985676	382
4	3099	200.069050985676	383
4	3125	201.689123248624	384
4	3125	201.689123248624	385
4	3125	201.689123248624	386
4	3149	202.811062948539	387
4	3149	202.811062948539	388
4	3149	202.811062948539	389
4	3175	204.049680639595	390
4	3175	204.049680639595	391
4	3175	204.049680639595	392
4	3200	205.253501071112	393
4	3200	205.253501071112	394
4	3200	205.253501071112	395
4	3221	206.272352836179	396
4	3221	206.272352836179	397
4	3221	206.272352836179	398
4	3241	207.615549906561	399
4	3241	207.615549906561	400
4	3241	207.615549906561	401
4	3274	209.062899803809	402
4	3274	209.062899803809	403
4	3274	209.062899803809	404
4	3289	210.923706478435	405
4	3289	210.923706478435	406
4	3289	210.923706478435	407
4	3314	212.822345512953	408
4	3314	212.822345512953	409
4	3314	212.822345512953	410
4	3339	214.10024084939	411
4	3339	214.10024084939	412
4	3339	214.10024084939	413
4	3367	215.631522069364	414
4	3367	215.631522069364	415
4	3367	215.631522069364	416
4	3386	217.251964230506	417
4	3386	217.251964230506	418
4	3386	217.251964230506	419
4	3417	218.363609529521	420
4	3417	218.363609529521	421
4	3417	218.363609529521	422
4	3440	219.701663573949	423
4	3440	219.701663573949	424
4	3440	219.701663573949	425
4	3468	221.006644919106	426
4	3468	221.006644919106	427
4	3468	221.006644919106	428
4	3497	222.325333682712	429
4	3497	222.325333682712	430
4	3497	222.325333682712	431
4	3514	224.261172324202	432
4	3514	224.261172324202	433
4	3514	224.261172324202	434
4	3540	226.087861387701	435
4	3540	226.087861387701	436
4	3540	226.087861387701	437
4	3565	229.18445538619	438
4	3565	229.18445538619	439
4	3565	229.18445538619	440
4	3588	230.485616892913	441
4	3588	230.485616892913	442
4	3588	230.485616892913	443
4	3615	231.80401994019	444
4	3615	231.80401994019	445
4	3615	231.80401994019	446
4	3640	233.774454475824	447
4	3640	233.774454475824	448
4	3640	233.774454475824	449
4	3661	235.344796569588	450
4	3661	235.344796569588	451
4	3661	235.344796569588	452
4	3683	236.653683355272	453
4	3683	236.653683355272	454
4	3683	236.653683355272	455
4	3707	238.118360693021	456
4	3707	238.118360693021	457
4	3707	238.118360693021	458
4	3735	239.467226878083	459
4	3735	239.467226878083	460
4	3735	239.467226878083	461
5	14	0.230608645336	0
5	14	0.230608645336	1
5	44	2.147696785028	2
5	44	2.147696785028	3
5	109	6.80847589442	4
5	109	6.80847589442	5
5	130	8.26916915194	6
5	130	8.26916915194	7
5	156	10.188789617907	8
5	156	10.188789617907	9
5	184	11.251618761505	10
5	184	11.251618761505	11
5	203	12.335971191341	12
5	203	12.335971191341	13
5	230	13.534279358162	14
5	230	13.534279358162	15
5	273	17.346240859812	16
5	273	17.346240859812	17
5	300	19.268855580732	18
5	300	19.268855580732	19
5	329	21.113414492113	20
5	329	21.113414492113	21
5	373	24.147493240103	22
5	373	24.147493240103	23
5	410	27.388835157395	24
5	410	27.388835157395	25
5	445	28.584647295623	26
5	445	28.584647295623	27
5	470	29.7735298891	28
5	470	29.7735298891	29
5	489	31.659237109437	30
5	489	31.659237109437	31
5	552	35.940280611891	32
5	552	35.940280611891	33
5	581	37.630790561752	34
5	581	37.630790561752	35
5	606	38.671478642479	36
5	606	38.671478642479	37
5	632	40.213230689379	38
5	632	40.213230689379	39
5	660	41.763980450289	40
5	660	41.763980450289	41
5	725	45.561215430495	42
5	725	45.561215430495	43
5	750	47.485165818683	44
5	750	47.485165818683	45
5	776	49.436950946622	46
5	776	49.436950946622	47
5	801	50.855913472376	48
5	801	50.855913472376	49
5	829	52.376808962317	50
5	829	52.376808962317	51
5	850	53.405987061475	52
5	850	53.405987061475	53
5	875	55.08629798795	54
5	875	55.08629798795	55
5	904	56.33593848617	56
5	904	56.33593848617	57
5	925	57.626555862962	58
5	925	57.626555862962	59
5	954	58.890438254544	60
5	954	58.890438254544	61
5	997	62.078996341188	62
5	997	62.078996341188	63
5	1026	63.761992778148	64
5	1026	63.761992778148	65
5	1044	65.519691049102	66
5	1044	65.519691049102	67
5	1073	66.900842824309	68
5	1073	66.900842824309	69
5	1098	68.110174313925	70
5	1098	68.110174313925	71
5	1116	69.114654453283	72
5	1116	69.114654453283	73
5	1141	70.763993722174	74
5	1141	70.763993722174	75
5	1173	71.980112116495	76
5	1173	71.980112116495	77
5	1213	74.317961323621	78
5	1213	74.317961323621	79
5	1263	77.386578130522	80
5	1263	77.386578130522	81
5	1314	80.612544399003	82
5	1314	80.612544399003	83
5	1335	82.160430999999	84
5	1335	82.160430999999	85
5	1356	83.880868239458	86
5	1356	83.880868239458	87
5	1404	87.272594029773	88
5	1404	87.272594029773	89
5	1429	88.801454822192	90
5	1429	88.801454822192	91
5	1448	90.077170146787	92
5	1448	90.077170146787	93
5	1478	91.900122337726	94
5	1478	91.900122337726	95
5	1507	93.528717467498	96
5	1507	93.528717467498	97
5	1528	95.255198093675	98
5	1528	95.255198093675	99
5	1557	96.932827001509	100
5	1557	96.932827001509	101
5	1581	100.415974345442	102
5	1581	100.415974345442	103
5	1599	101.612671241571	104
5	1599	101.612671241571	105
5	1631	103.619982341866	106
5	1631	103.619982341866	107
5	1656	105.161162591414	108
5	1656	105.161162591414	109
5	1677	106.57878411267	110
5	1677	106.57878411267	111
5	1724	109.979278729629	112
5	1724	109.979278729629	113
5	1743	111.725403832122	114
5	1743	111.725403832122	115
5	1774	113.71800852363	116
5	1774	113.71800852363	117
5	1803	115.38096887904	118
5	1803	115.38096887904	119
5	1828	116.657786259564	120
5	1828	116.657786259564	121
5	1846	118.308502338567	122
5	1846	118.308502338567	123
5	1870	119.921558310772	124
5	1870	119.921558310772	125
5	1892	121.639365458781	126
5	1892	121.639365458781	127
5	1917	123.267598919497	128
5	1917	123.267598919497	129
5	1946	125.226897414259	130
5	1946	125.226897414259	131
5	1974	126.93118667009	132
5	1974	126.93118667009	133
5	1999	128.8322430049	134
5	1999	128.8322430049	135
5	2024	130.556649543111	136
5	2024	130.556649543111	137
5	2045	132.150188379166	138
5	2045	132.150188379166	139
5	2074	133.6951918994	140
5	2074	133.6951918994	141
5	2096	134.682617064725	142
5	2096	134.682617064725	143
5	2120	136.485459768269	144
5	2120	136.485459768269	145
5	2141	138.262544266388	146
5	2141	138.262544266388	147
5	2170	139.688553821527	148
5	2170	139.688553821527	149
5	2192	141.316430666835	150
5	2192	141.316430666835	151
5	2209	142.453212627774	152
5	2209	142.453212627774	153
5	2242	144.263660879046	154
5	2242	144.263660879046	155
5	2270	145.48589541832	156
5	2270	145.48589541832	157
5	2295	147.177696062451	158
5	2295	147.177696062451	159
5	2317	149.079146786507	160
5	2317	149.079146786507	161
5	2367	152.643500971835	162
5	2367	152.643500971835	163
5	2392	154.087180472034	164
5	2392	154.087180472034	165
5	2410	155.170928655696	166
5	2410	155.170928655696	167
5	2438	156.220791657822	168
5	2438	156.220791657822	169
5	2547	163.264605495374	170
5	2547	163.264605495374	171
5	2568	165.214083218818	172
5	2568	165.214083218818	173
5	2594	167.172116216921	174
5	2594	167.172116216921	175
5	2618	168.444918632339	176
5	2618	168.444918632339	177
5	2647	170.11780619098	178
5	2647	170.11780619098	179
5	2665	171.538549763743	180
5	2665	171.538549763743	181
5	2719	174.069161062074	182
5	2719	174.069161062074	183
5	2763	176.824623517107	184
5	2763	176.824623517107	185
5	2780	178.596439778955	186
5	2780	178.596439778955	187
5	2834	180.852392890716	188
5	2834	180.852392890716	189
5	2860	182.575512781259	190
5	2860	182.575512781259	191
5	2888	184.398967416676	192
5	2888	184.398967416676	193
5	2910	185.841686855508	194
5	2910	185.841686855508	195
5	2938	187.633097025976	196
5	2938	187.633097025976	197
5	3024	193.453210126877	198
5	3024	193.453210126877	199
5	3051	195.422820774914	200
5	3051	195.422820774914	201
5	3082	198.384534247202	202
5	3082	198.384534247202	203
5	3114	200.096699120805	204
5	3114	200.096699120805	205
5	3136	201.718047103757	206
5	3136	201.718047103757	207
5	3182	204.060181176304	208
5	3182	204.060181176304	209
5	3205	205.261021604483	210
5	3205	205.261021604483	211
5	3232	206.295283363186	212
5	3232	206.295283363186	213
5	3257	207.654056344779	214
5	3257	207.654056344779	215
5	3301	210.955075022017	216
5	3301	210.955075022017	217
5	3326	212.848108749985	218
5	3326	212.848108749985	219
5	3354	214.142501747879	220
5	3354	214.142501747879	221
5	3401	217.281410506746	222
5	3401	217.281410506746	223
5	3416	218.36045420503	224
5	3416	218.36045420503	225
5	3442	219.705988224118	226
5	3442	219.705988224118	227
5	3476	221.024207638265	228
5	3476	221.024207638265	229
5	3493	222.308980964771	230
5	3493	222.308980964771	231
5	3526	224.289626915929	232
5	3526	224.289626915929	233
5	3547	226.109439975384	234
5	3547	226.109439975384	235
5	3569	229.192343817689	236
5	3569	229.192343817689	237
5	3622	231.814543970828	238
5	3622	231.814543970828	239
5	3647	233.785741904434	240
5	3647	233.785741904434	241
5	3673	235.381450215583	242
5	3673	235.381450215583	243
5	3698	236.745521044171	244
5	3698	236.745521044171	245
5	3723	238.191301974693	246
5	3723	238.191301974693	247
5	3744	239.481024380861	248
5	3744	239.481024380861	249
6	22	0.252709066794	0
6	22	0.252709066794	1
6	22	0.252709066794	2
6	40	2.131225496296	3
6	40	2.131225496296	4
6	40	2.131225496296	5
6	59	4.123020087325	6
6	59	4.123020087325	7
6	59	4.123020087325	8
6	87	5.575818074257	9
6	87	5.575818074257	10
6	87	5.575818074257	11
6	133	8.279351553505	12
6	133	8.279351553505	13
6	133	8.279351553505	14
6	155	10.183775917802	15
6	155	10.183775917802	16
6	155	10.183775917802	17
6	177	11.232771037698	18
6	177	11.232771037698	19
6	177	11.232771037698	20
6	199	12.333142068121	21
6	199	12.333142068121	22
6	199	12.333142068121	23
6	231	13.534366749295	24
6	231	13.534366749295	25
6	231	13.534366749295	26
6	276	17.349921666237	27
6	276	17.349921666237	28
6	276	17.349921666237	29
6	301	19.274018127649	30
6	301	19.274018127649	31
6	301	19.274018127649	32
6	317	21.061473598046	33
6	317	21.061473598046	34
6	317	21.061473598046	35
6	350	22.184963255275	36
6	350	22.184963255275	37
6	350	22.184963255275	38
6	369	24.124227402167	39
6	369	24.124227402167	40
6	369	24.124227402167	41
6	391	25.46209123805	42
6	391	25.46209123805	43
6	391	25.46209123805	44
6	411	27.397396424756	45
6	411	27.397396424756	46
6	411	27.397396424756	47
6	441	28.571208711501	48
6	441	28.571208711501	49
6	441	28.571208711501	50
6	462	29.697503372124	51
6	462	29.697503372124	52
6	462	29.697503372124	53
6	490	31.660076154993	54
6	490	31.660076154993	55
6	490	31.660076154993	56
6	516	32.90412593736	57
6	516	32.90412593736	58
6	516	32.90412593736	59
6	556	35.955951807516	60
6	556	35.955951807516	61
6	556	35.955951807516	62
6	582	37.63595117306	63
6	582	37.63595117306	64
6	582	37.63595117306	65
6	607	38.679004499521	66
6	607	38.679004499521	67
6	607	38.679004499521	68
6	631	40.211768267643	69
6	631	40.211768267643	70
6	631	40.211768267643	71
6	652	41.733004022349	72
6	652	41.733004022349	73
6	652	41.733004022349	74
6	678	42.987756509427	75
6	678	42.987756509427	76
6	678	42.987756509427	77
6	703	44.501475895997	78
6	703	44.501475895997	79
6	703	44.501475895997	80
6	726	45.564157391935	81
6	726	45.564157391935	82
6	726	45.564157391935	83
6	751	47.486880085171	84
6	751	47.486880085171	85
6	751	47.486880085171	86
6	775	49.431993052973	87
6	775	49.431993052973	88
6	775	49.431993052973	89
6	797	50.847165004951	90
6	797	50.847165004951	91
6	797	50.847165004951	92
6	821	52.357608200122	93
6	821	52.357608200122	94
6	821	52.357608200122	95
6	853	53.439577645108	96
6	853	53.439577645108	97
6	853	53.439577645108	98
6	876	55.088254850941	99
6	876	55.088254850941	100
6	876	55.088254850941	101
6	900	56.321506032153	102
6	900	56.321506032153	103
6	900	56.321506032153	104
6	928	57.644696957479	105
6	928	57.644696957479	106
6	928	57.644696957479	107
6	950	58.872724504394	108
6	950	58.872724504394	109
6	950	58.872724504394	110
6	975	60.863898408821	111
6	975	60.863898408821	112
6	975	60.863898408821	113
6	1000	62.094089967089	114
6	1000	62.094089967089	115
6	1000	62.094089967089	116
6	1014	63.697472492216	117
6	1014	63.697472492216	118
6	1014	63.697472492216	119
6	1045	65.527503678857	120
6	1045	65.527503678857	121
6	1045	65.527503678857	122
6	1061	66.844740858649	123
6	1061	66.844740858649	124
6	1061	66.844740858649	125
6	1087	68.073813712472	126
6	1087	68.073813712472	127
6	1087	68.073813712472	128
6	1122	69.1368505835	129
6	1122	69.1368505835	130
6	1122	69.1368505835	131
6	1147	70.790521157088	132
6	1147	70.790521157088	133
6	1147	70.790521157088	134
6	1165	71.930843819327	135
6	1165	71.930843819327	136
6	1165	71.930843819327	137
6	1194	72.988293356375	138
6	1194	72.988293356375	139
6	1194	72.988293356375	140
6	1212	74.317327475129	141
6	1212	74.317327475129	142
6	1212	74.317327475129	143
6	1237	76.305830280976	144
6	1237	76.305830280976	145
6	1237	76.305830280976	146
6	1266	77.410839669705	147
6	1266	77.410839669705	148
6	1266	77.410839669705	149
6	1284	78.722208494391	150
6	1284	78.722208494391	151
6	1284	78.722208494391	152
6	1310	80.595414177772	153
6	1310	80.595414177772	154
6	1310	80.595414177772	155
6	1357	83.884966264264	156
6	1357	83.884966264264	157
6	1357	83.884966264264	158
6	1378	85.67008262723	159
6	1378	85.67008262723	160
6	1378	85.67008262723	161
6	1400	87.268005088564	162
6	1400	87.268005088564	163
6	1400	87.268005088564	164
6	1428	88.796935884494	165
6	1428	88.796935884494	166
6	1428	88.796935884494	167
6	1456	90.089212019114	168
6	1456	90.089212019114	169
6	1456	90.089212019114	170
6	1479	91.90724972906	171
6	1479	91.90724972906	172
6	1479	91.90724972906	173
6	1503	93.493080593104	174
6	1503	93.493080593104	175
6	1503	93.493080593104	176
6	1531	95.295777795369	177
6	1531	95.295777795369	178
6	1531	95.295777795369	179
6	1549	96.907094038087	180
6	1549	96.907094038087	181
6	1549	96.907094038087	182
6	1598	101.60800128426	183
6	1598	101.60800128426	184
6	1598	101.60800128426	185
6	1627	103.597812164239	186
6	1627	103.597812164239	187
6	1627	103.597812164239	188
6	1652	105.1456761838	189
6	1652	105.1456761838	190
6	1652	105.1456761838	191
6	1678	106.583241709011	192
6	1678	106.583241709011	193
6	1678	106.583241709011	194
6	1702	108.216454431062	195
6	1702	108.216454431062	196
6	1702	108.216454431062	197
6	1727	110.006730513984	198
6	1727	110.006730513984	199
6	1727	110.006730513984	200
6	1742	111.722013366067	201
6	1742	111.722013366067	202
6	1742	111.722013366067	203
6	1775	113.7240193841	204
6	1775	113.7240193841	205
6	1775	113.7240193841	206
6	1792	115.350702589798	207
6	1792	115.350702589798	208
6	1792	115.350702589798	209
6	1817	116.612393047185	210
6	1817	116.612393047185	211
6	1817	116.612393047185	212
6	1871	119.927235613626	213
6	1871	119.927235613626	214
6	1871	119.927235613626	215
6	1898	121.655897293139	216
6	1898	121.655897293139	217
6	1898	121.655897293139	218
6	1918	123.268956701747	219
6	1918	123.268956701747	220
6	1918	123.268956701747	221
6	1943	125.221992391474	222
6	1943	125.221992391474	223
6	1943	125.221992391474	224
6	1963	126.884966191092	225
6	1963	126.884966191092	226
6	1963	126.884966191092	227
6	1992	128.81993789563	228
6	1992	128.81993789563	229
6	1992	128.81993789563	230
6	2012	130.526891440598	231
6	2012	130.526891440598	232
6	2012	130.526891440598	233
6	2048	132.189635182254	234
6	2048	132.189635182254	235
6	2048	132.189635182254	236
6	2063	133.665921304282	237
6	2063	133.665921304282	238
6	2063	133.665921304282	239
6	2092	134.680519318062	240
6	2092	134.680519318062	241
6	2092	134.680519318062	242
6	2142	138.26437561913	243
6	2142	138.26437561913	244
6	2142	138.26437561913	245
6	2166	139.676399035405	246
6	2166	139.676399035405	247
6	2166	139.676399035405	248
6	2191	141.311591123292	249
6	2191	141.311591123292	250
6	2191	141.311591123292	251
6	2210	142.455474222543	252
6	2210	142.455474222543	253
6	2210	142.455474222543	254
6	2241	144.256949446801	255
6	2241	144.256949446801	256
6	2241	144.256949446801	257
6	2259	145.446740626233	258
6	2259	145.446740626233	259
6	2259	145.446740626233	260
6	2284	147.118578472244	261
6	2284	147.118578472244	262
6	2284	147.118578472244	263
6	2314	149.075146141877	264
6	2314	149.075146141877	265
6	2314	149.075146141877	266
6	2334	150.894762923411	267
6	2334	150.894762923411	268
6	2334	150.894762923411	269
6	2357	152.597000323531	270
6	2357	152.597000323531	271
6	2357	152.597000323531	272
6	2388	154.072663180763	273
6	2388	154.072663180763	274
6	2388	154.072663180763	275
6	2416	155.190923690134	276
6	2416	155.190923690134	277
6	2416	155.190923690134	278
6	2441	156.237518226175	279
6	2441	156.237518226175	280
6	2441	156.237518226175	281
6	2478	159.153728044845	282
6	2478	159.153728044845	283
6	2478	159.153728044845	284
6	2516	161.527370544838	285
6	2516	161.527370544838	286
6	2516	161.527370544838	287
6	2535	163.234521371458	288
6	2535	163.234521371458	289
6	2535	163.234521371458	290
6	2569	165.216405415599	291
6	2569	165.216405415599	292
6	2569	165.216405415599	293
6	2593	167.168378612818	294
6	2593	167.168378612818	295
6	2593	167.168378612818	296
6	2621	168.468954583376	297
6	2621	168.468954583376	298
6	2621	168.468954583376	299
6	2636	170.078016930378	300
6	2636	170.078016930378	301
6	2636	170.078016930378	302
6	2671	171.57070956471	303
6	2671	171.57070956471	304
6	2671	171.57070956471	305
6	2688	172.960510147037	306
6	2688	172.960510147037	307
6	2688	172.960510147037	308
6	2707	174.031559374001	309
6	2707	174.031559374001	310
6	2707	174.031559374001	311
6	2736	175.315718336976	312
6	2736	175.315718336976	313
6	2736	175.315718336976	314
6	2762	176.820380310748	315
6	2762	176.820380310748	316
6	2762	176.820380310748	317
6	2781	178.599211153516	318
6	2781	178.599211153516	319
6	2781	178.599211153516	320
6	2807	179.708952542153	321
6	2807	179.708952542153	322
6	2807	179.708952542153	323
6	2835	180.854224119043	324
6	2835	180.854224119043	325
6	2835	180.854224119043	326
6	2856	182.569637817866	327
6	2856	182.569637817866	328
6	2856	182.569637817866	329
6	2880	184.366324945919	330
6	2880	184.366324945919	331
6	2880	184.366324945919	332
6	2906	185.832540217606	333
6	2906	185.832540217606	334
6	2906	185.832540217606	335
6	2934	187.616321397354	336
6	2934	187.616321397354	337
6	2934	187.616321397354	338
6	2959	188.686460042556	339
6	2959	188.686460042556	340
6	2959	188.686460042556	341
6	2981	190.394228325693	342
6	2981	190.394228325693	343
6	2981	190.394228325693	344
6	2996	192.362957229134	345
6	2996	192.362957229134	346
6	2996	192.362957229134	347
6	3019	193.446049317844	348
6	3019	193.446049317844	349
6	3019	193.446049317844	350
6	3047	195.41409400729	351
6	3047	195.41409400729	352
6	3047	195.41409400729	353
6	3088	198.394957404734	354
6	3088	198.394957404734	355
6	3088	198.394957404734	356
6	3107	200.083760497523	357
6	3107	200.083760497523	358
6	3107	200.083760497523	359
6	3135	201.708913051042	360
6	3135	201.708913051042	361
6	3135	201.708913051042	362
6	3160	202.832778418503	363
6	3160	202.832778418503	364
6	3160	202.832778418503	365
6	3183	204.06038040275	366
6	3183	204.06038040275	367
6	3183	204.06038040275	368
6	3204	205.256830542446	369
6	3204	205.256830542446	370
6	3204	205.256830542446	371
6	3245	207.633122318164	372
6	3245	207.633122318164	373
6	3245	207.633122318164	374
6	3278	209.07446991908	375
6	3278	209.07446991908	376
6	3278	209.07446991908	377
6	3300	210.954398402018	378
6	3300	210.954398402018	379
6	3300	210.954398402018	380
6	3325	212.843500821451	381
6	3325	212.843500821451	382
6	3325	212.843500821451	383
6	3346	214.120676151978	384
6	3346	214.120676151978	385
6	3346	214.120676151978	386
6	3375	215.649118070976	387
6	3375	215.649118070976	388
6	3375	215.649118070976	389
6	3393	217.268975934759	390
6	3393	217.268975934759	391
6	3393	217.268975934759	392
6	3415	218.357636396504	393
6	3415	218.357636396504	394
6	3415	218.357636396504	395
6	3443	219.708844266733	396
6	3443	219.708844266733	397
6	3443	219.708844266733	398
6	3469	221.012483455049	399
6	3469	221.012483455049	400
6	3469	221.012483455049	401
6	3496	222.321168716841	402
6	3496	222.321168716841	403
6	3496	222.321168716841	404
6	3519	224.279067984252	405
6	3519	224.279067984252	406
6	3519	224.279067984252	407
6	3548	226.112405633569	408
6	3548	226.112405633569	409
6	3548	226.112405633569	410
6	3576	229.203609260635	411
6	3576	229.203609260635	412
6	3576	229.203609260635	413
6	3592	230.495807729159	414
6	3592	230.495807729159	415
6	3592	230.495807729159	416
6	3625	231.834992646576	417
6	3625	231.834992646576	418
6	3625	231.834992646576	419
6	3650	233.803787266234	420
6	3650	233.803787266234	421
6	3650	233.803787266234	422
6	3665	235.356392298274	423
6	3665	235.356392298274	424
6	3665	235.356392298274	425
6	3694	236.673753677523	426
6	3694	236.673753677523	427
6	3694	236.673753677523	428
6	3712	238.130604587326	429
6	3712	238.130604587326	430
6	3712	238.130604587326	431
6	3745	239.481066456182	432
6	3745	239.481066456182	433
6	3745	239.481066456182	434
7	25	0.262709066794	0
7	43	2.141225496296	1
7	46	2.157696785028	2
7	90	5.585818074257	3
7	111	6.81847589442	4
7	132	8.27916915194	5
7	136	8.289351553505	6
7	161	10.198789617907	7
7	183	11.242771037698	8
7	186	11.261618761505	9
7	233	13.544279358162	10
7	281	17.359921666237	11
7	303	19.278855580732	12
7	306	19.284018127649	13
7	321	21.071473598046	14
7	331	21.123414492113	15
7	353	22.194963255275	16
7	372	24.134227402167	17
7	375	24.157493240103	18
7	397	25.47209123805	19
7	416	27.398835157395	20
7	444	28.581208711501	21
7	497	31.670076154993	22
7	519	32.91412593736	23
7	555	35.950280611891	24
7	584	37.640790561752	25
7	612	38.689004499521	26
7	635	40.221768267643	27
7	637	40.223230689379	28
7	656	41.743004022349	29
7	662	41.773980450289	30
7	728	45.571215430495	31
7	753	47.495165818683	32
7	756	47.496880085171	33
7	779	49.441993052973	34
7	806	50.865913472376	35
7	856	53.449577645108	36
7	878	55.09629798795	37
7	881	55.098254850941	38
7	903	56.331506032153	39
7	906	56.34593848617	40
7	927	57.636555862962	41
7	953	58.882724504394	42
7	956	58.900438254544	43
7	978	60.873898408821	44
7	999	62.088996341188	45
7	1003	62.104089967089	46
7	1017	63.707472492216	47
7	1064	66.854740858649	48
7	1075	66.910842824309	49
7	1100	68.120174313925	50
7	1121	69.124654453283	51
7	1144	70.773993722174	52
7	1175	71.990112116495	53
7	1197	72.998293356375	54
7	1269	77.420839669705	55
7	1287	78.732208494391	56
7	1313	80.605414177772	57
7	1316	80.622544399003	58
7	1337	82.170430999999	59
7	1359	83.890868239458	60
7	1362	83.894966264264	61
7	1384	85.68008262723	62
7	1407	87.278005088564	63
7	1432	88.806935884494	64
7	1455	90.087170146787	65
7	1481	91.910122337726	66
7	1506	93.503080593104	67
7	1509	93.538717467498	68
7	1530	95.265198093675	69
7	1534	95.305777795369	70
7	1553	96.917094038087	71
7	1559	96.942827001509	72
7	1583	100.425974345442	73
7	1603	101.61800128426	74
7	1605	101.622671241571	75
7	1630	103.607812164239	76
7	1655	105.1556761838	77
7	1680	106.58878411267	78
7	1726	109.989278729629	79
7	1730	110.016730513984	80
7	1749	111.735403832122	81
7	1780	113.7340193841	82
7	1798	115.360702589798	83
7	1805	115.39096887904	84
7	1823	116.622393047185	85
7	1848	118.318502338567	86
7	1876	119.937235613626	87
7	1901	121.665897293139	88
7	1923	123.277598919497	89
7	1926	123.278956701747	90
7	1949	125.231992391474	91
7	1969	126.894966191092	92
7	1976	126.94118667009	93
7	1998	128.82993789563	94
7	2001	128.8422430049	95
7	2016	130.536891440598	96
7	2026	130.566649543111	97
7	2047	132.160188379166	98
7	2051	132.199635182254	99
7	2069	133.675921304282	100
7	2099	134.690519318062	101
7	2101	134.692617064725	102
7	2122	136.495459768269	103
7	2195	141.321591123292	104
7	2213	142.463212627774	105
7	2265	145.456740626233	106
7	2272	145.49589541832	107
7	2322	149.089146786507	108
7	2391	154.082663180763	109
7	2394	154.097180472034	110
7	2419	155.200923690134	111
7	2440	156.230791657822	112
7	2482	159.163728044845	113
7	2524	161.537370544838	114
7	2539	163.244521371458	115
7	2549	163.274605495374	116
7	2571	165.224083218818	117
7	2574	165.226405415599	118
7	2599	167.182116216921	119
7	2620	168.454918632339	120
7	2624	168.478954583376	121
7	2674	171.58070956471	122
7	2696	172.970510147037	123
7	2711	174.041559374001	124
7	2721	174.079161062074	125
7	2740	175.325718336976	126
7	2766	176.830380310748	127
7	2768	176.834623517107	128
7	2788	178.609211153516	129
7	2837	180.862392890716	130
7	2840	180.864224119043	131
7	2863	182.579637817866	132
7	2865	182.585512781259	133
7	2883	184.376324945919	134
7	2890	184.408967416676	135
7	2913	185.842540217606	136
7	2915	185.851686855508	137
7	2937	187.626321397354	138
7	2962	188.696460042556	139
7	2984	190.404228325693	140
7	3002	192.372957229134	141
7	3031	193.463210126877	142
7	3054	195.42409400729	143
7	3087	198.394534247202	144
7	3091	198.404957404734	145
7	3116	200.106699120805	146
7	3139	201.718913051042	147
7	3141	201.728047103757	148
7	3163	202.842778418503	149
7	3188	204.07038040275	150
7	3211	205.266830542446	151
7	3234	206.305283363186	152
7	3259	207.664056344779	153
7	3281	209.08446991908	154
7	3304	210.964398402018	155
7	3306	210.965075022017	156
7	3329	212.853500821451	157
7	3331	212.858108749985	158
7	3356	214.152501747879	159
7	3378	215.659118070976	160
7	3397	217.278975934759	161
7	3403	217.291410506746	162
7	3420	218.367636396504	163
7	3453	219.718844266733	164
7	3478	221.034207638265	165
7	3495	222.318980964771	166
7	3528	224.299626915929	167
7	3553	226.122405633569	168
7	3581	229.213609260635	169
7	3596	230.505807729159	170
7	3624	231.824543970828	171
7	3628	231.844992646576	172
7	3649	233.795741904434	173
7	3668	235.366392298274	174
7	3675	235.391450215583	175
7	3700	236.755521044171	176
7	3718	238.140604587326	177
7	3750	239.491066456182	178

