version 2
run General-2-20230921-22:34:23-7056
attr configname General
attr datetime 20230921-22:34:23
attr experiment General
attr inifile omnetpp.ini
attr iterationvars ""
attr iterationvarsf ""
attr measurement ""
attr network Network3
attr processid 7056
attr repetition 2
attr replication #2
attr resultdir results
attr runnumber 2
attr seedset 2
param Network3.node[*].transmissionTime "uniform(1s, 2s)"
param Network3.node[*].delayTime "uniform(0.01s, 0.2s)"
param Network3.node[*].processingTime exponential(0.01s)
param Network3.node[0].lossProbability 0
param Network3.node[1].lossProbability 0.1
param Network3.node[2].lossProbability 0.1
param Network3.node[3].lossProbability "0.1 / 2"
param Network3.node[4].lossProbability "0.1 / 2"
param Network3.node[6].lossProbability "0.1 * 2"
param Network3.node[7].lossProbability "0.1 * 2"
param Network3.node[5].lossProbability "0.1 * 3"

vector 0 Network3.node[0] txVector ETV
vector 1 Network3.node[2] txVector ETV
vector 2 Network3.node[4] txVector ETV
vector 3 Network3.node[1] txVector ETV
vector 4 Network3.node[3] txVector ETV
vector 5 Network3.node[6] txVector ETV
vector 6 Network3.node[7] txVector ETV
vector 7 Network3.node[5] rxVector ETV
0	1	0.092839031499	0
0	1	0.092839031499	1
0	26	1.277921112972	2
0	26	1.277921112972	3
0	51	2.791499230797	4
0	51	2.791499230797	5
0	76	4.357264361131	6
0	76	4.357264361131	7
0	101	5.519562964347	8
0	101	5.519562964347	9
0	126	7.333701381246	10
0	126	7.333701381246	11
0	151	8.502926826962	12
0	151	8.502926826962	13
0	176	9.508471247992	14
0	176	9.508471247992	15
0	201	11.481381938812	16
0	201	11.481381938812	17
0	226	13.056335476479	18
0	226	13.056335476479	19
0	251	14.596526986473	20
0	251	14.596526986473	21
0	254	15.80929435745	22
0	254	15.80929435745	23
0	279	17.438654084011	24
0	279	17.438654084011	25
0	301	18.773748748257	26
0	301	18.773748748257	27
0	311	19.789859013419	28
0	311	19.789859013419	29
0	336	20.88022939141	30
0	336	20.88022939141	31
0	350	22.305596686919	32
0	350	22.305596686919	33
0	356	24.013567861422	34
0	356	24.013567861422	35
0	378	25.516346609007	36
0	378	25.516346609007	37
0	403	26.541548032566	38
0	403	26.541548032566	39
0	428	28.506328687324	40
0	428	28.506328687324	41
0	450	29.714831181821	42
0	450	29.714831181821	43
0	475	30.822018581927	44
0	475	30.822018581927	45
0	500	31.835255615665	46
0	500	31.835255615665	47
0	522	32.955295407931	48
0	522	32.955295407931	49
0	547	34.042674581307	50
0	547	34.042674581307	51
0	572	35.877640435259	52
0	572	35.877640435259	53
0	594	36.951138820053	54
0	594	36.951138820053	55
0	616	38.3878087057	56
0	616	38.3878087057	57
0	641	39.639091621639	58
0	641	39.639091621639	59
0	666	41.087505082387	60
0	666	41.087505082387	61
0	688	42.584232579937	62
0	688	42.584232579937	63
0	713	44.273484454976	64
0	713	44.273484454976	65
0	738	45.887115888085	66
0	738	45.887115888085	67
0	763	47.516125350745	68
0	763	47.516125350745	69
0	788	48.598004722988	70
0	788	48.598004722988	71
0	813	49.846739011138	72
0	813	49.846739011138	73
0	835	51.053942461984	74
0	835	51.053942461984	75
0	860	52.121041009223	76
0	860	52.121041009223	77
0	885	53.684467045145	78
0	885	53.684467045145	79
0	910	55.207225102486	80
0	910	55.207225102486	81
0	935	56.833013717338	82
0	935	56.833013717338	83
0	960	57.870101514758	84
0	960	57.870101514758	85
0	985	59.316569624023	86
0	985	59.316569624023	87
0	1010	60.578085828825	88
0	1010	60.578085828825	89
0	1031	62.556669411269	90
0	1031	62.556669411269	91
0	1053	64.271324651801	92
0	1053	64.271324651801	93
0	1078	65.847568350864	94
0	1078	65.847568350864	95
0	1103	67.801259894875	96
0	1103	67.801259894875	97
0	1128	69.744927234269	98
0	1128	69.744927234269	99
0	1153	70.895055135033	100
0	1153	70.895055135033	101
0	1178	72.35743929145	102
0	1178	72.35743929145	103
0	1203	73.81977689664	104
0	1203	73.81977689664	105
0	1228	75.022668156094	106
0	1228	75.022668156094	107
0	1253	76.132276031208	108
0	1253	76.132276031208	109
0	1278	77.526627616045	110
0	1278	77.526627616045	111
0	1303	78.821648413102	112
0	1303	78.821648413102	113
0	1328	80.580213204744	114
0	1328	80.580213204744	115
0	1353	81.849825407863	116
0	1353	81.849825407863	117
0	1378	82.909699440953	118
0	1378	82.909699440953	119
0	1399	84.442103455561	120
0	1399	84.442103455561	121
0	1424	85.442571926416	122
0	1424	85.442571926416	123
0	1446	87.351881393251	124
0	1446	87.351881393251	125
0	1467	88.951460602014	126
0	1467	88.951460602014	127
0	1489	90.711474129251	128
0	1489	90.711474129251	129
0	1514	92.457853096091	130
0	1514	92.457853096091	131
0	1536	93.959328885675	132
0	1536	93.959328885675	133
0	1561	95.294544977854	134
0	1561	95.294544977854	135
0	1586	96.673456876325	136
0	1586	96.673456876325	137
0	1611	98.178318481911	138
0	1611	98.178318481911	139
0	1636	99.591704426119	140
0	1636	99.591704426119	141
0	1661	101.483620001487	142
0	1661	101.483620001487	143
0	1686	102.795798044204	144
0	1686	102.795798044204	145
0	1711	104.244141680905	146
0	1711	104.244141680905	147
0	1736	105.566867825593	148
0	1736	105.566867825593	149
0	1761	106.568791772024	150
0	1761	106.568791772024	151
0	1786	108.398736282968	152
0	1786	108.398736282968	153
0	1811	109.406670223474	154
0	1811	109.406670223474	155
0	1836	111.392232249509	156
0	1836	111.392232249509	157
0	1861	112.564088589064	158
0	1861	112.564088589064	159
0	1886	114.035942626204	160
0	1886	114.035942626204	161
0	1908	115.934286587657	162
0	1908	115.934286587657	163
0	1930	117.920765210194	164
0	1930	117.920765210194	165
0	1952	119.545212537068	166
0	1952	119.545212537068	167
0	1977	121.041763416742	168
0	1977	121.041763416742	169
0	2002	122.805135864782	170
0	2002	122.805135864782	171
0	2024	124.370714879379	172
0	2024	124.370714879379	173
0	2049	126.293983908387	174
0	2049	126.293983908387	175
0	2074	127.990979044482	176
0	2074	127.990979044482	177
0	2096	129.317672672931	178
0	2096	129.317672672931	179
0	2118	130.988369843008	180
0	2118	130.988369843008	181
0	2143	132.009485390054	182
0	2143	132.009485390054	183
0	2168	133.70358115576	184
0	2168	133.70358115576	185
0	2193	134.998084838751	186
0	2193	134.998084838751	187
0	2218	136.728717777894	188
0	2218	136.728717777894	189
0	2243	138.714449815468	190
0	2243	138.714449815468	191
0	2265	140.64158505948	192
0	2265	140.64158505948	193
0	2290	142.094489963043	194
0	2290	142.094489963043	195
0	2315	144.068710821231	196
0	2315	144.068710821231	197
0	2340	145.714538770045	198
0	2340	145.714538770045	199
0	2365	146.73851785205	200
0	2365	146.73851785205	201
0	2390	147.775077968153	202
0	2390	147.775077968153	203
0	2415	148.849541134915	204
0	2415	148.849541134915	205
0	2440	150.16695445894	206
0	2440	150.16695445894	207
0	2465	151.223827319003	208
0	2465	151.223827319003	209
0	2490	152.88635543619	210
0	2490	152.88635543619	211
0	2512	154.806880470148	212
0	2512	154.806880470148	213
0	2537	156.682905156414	214
0	2537	156.682905156414	215
0	2562	157.85669636728	216
0	2562	157.85669636728	217
0	2587	158.89592567763	218
0	2587	158.89592567763	219
0	2601	159.965761156768	220
0	2601	159.965761156768	221
0	2626	161.757504741444	222
0	2626	161.757504741444	223
0	2651	163.309099590421	224
0	2651	163.309099590421	225
0	2673	164.809102268672	226
0	2673	164.809102268672	227
0	2698	166.161508940641	228
0	2698	166.161508940641	229
0	2723	168.084399006112	230
0	2723	168.084399006112	231
0	2748	169.610089469716	232
0	2748	169.610089469716	233
0	2773	170.849358862048	234
0	2773	170.849358862048	235
0	2798	171.998681370649	236
0	2798	171.998681370649	237
0	2823	173.494819565458	238
0	2823	173.494819565458	239
0	2844	174.68388951222	240
0	2844	174.68388951222	241
0	2869	175.870938356515	242
0	2869	175.870938356515	243
0	2890	177.310416728273	244
0	2890	177.310416728273	245
0	2912	178.613283814877	246
0	2912	178.613283814877	247
0	2937	180.396985229119	248
0	2937	180.396985229119	249
0	2962	182.206428391175	250
0	2962	182.206428391175	251
0	2987	183.32968079533	252
0	2987	183.32968079533	253
0	3009	185.315544849742	254
0	3009	185.315544849742	255
0	3034	186.411427391708	256
0	3034	186.411427391708	257
0	3059	187.969513805132	258
0	3059	187.969513805132	259
0	3084	189.781154453303	260
0	3084	189.781154453303	261
0	3109	191.526389600956	262
0	3109	191.526389600956	263
0	3131	193.195823036847	264
0	3131	193.195823036847	265
0	3156	195.104197001099	266
0	3156	195.104197001099	267
0	3181	196.184559488218	268
0	3181	196.184559488218	269
0	3206	197.406420976404	270
0	3206	197.406420976404	271
0	3231	198.81043512655	272
0	3231	198.81043512655	273
0	3256	200.468134037233	274
0	3256	200.468134037233	275
0	3281	202.147352609797	276
0	3281	202.147352609797	277
0	3306	203.191427022232	278
0	3306	203.191427022232	279
0	3331	204.372095942976	280
0	3331	204.372095942976	281
0	3356	205.763416698448	282
0	3356	205.763416698448	283
0	3377	206.870329150477	284
0	3377	206.870329150477	285
0	3402	208.038214646525	286
0	3402	208.038214646525	287
0	3427	209.367565236532	288
0	3427	209.367565236532	289
0	3452	210.605548512668	290
0	3452	210.605548512668	291
0	3474	212.088123551582	292
0	3474	212.088123551582	293
0	3496	213.32379609464	294
0	3496	213.32379609464	295
0	3521	214.695664700598	296
0	3521	214.695664700598	297
0	3546	215.770444100036	298
0	3546	215.770444100036	299
0	3571	217.224267713737	300
0	3571	217.224267713737	301
0	3596	218.424841507582	302
0	3596	218.424841507582	303
0	3621	219.58393328475	304
0	3621	219.58393328475	305
0	3646	220.976599151047	306
0	3646	220.976599151047	307
0	3668	222.636877092311	308
0	3668	222.636877092311	309
0	3693	223.729992181772	310
0	3693	223.729992181772	311
0	3718	225.602512139139	312
0	3718	225.602512139139	313
0	3740	227.374500703776	314
0	3740	227.374500703776	315
0	3765	228.647223270742	316
0	3765	228.647223270742	317
0	3790	230.332542002445	318
0	3790	230.332542002445	319
0	3811	231.665130061574	320
0	3811	231.665130061574	321
0	3833	232.880667739792	322
0	3833	232.880667739792	323
0	3858	234.608608887309	324
0	3858	234.608608887309	325
0	3883	236.053822589583	326
0	3883	236.053822589583	327
0	3908	237.189595598971	328
0	3908	237.189595598971	329
0	3933	238.285061896091	330
0	3933	238.285061896091	331
0	3958	239.523584588907	332
0	3958	239.523584588907	333
1	4	0.110816610738	0
1	4	0.110816610738	1
1	33	1.3033078859	2
1	33	1.3033078859	3
1	58	2.816087501838	4
1	58	2.816087501838	5
1	84	4.400660986712	6
1	84	4.400660986712	7
1	104	5.534125429616	8
1	104	5.534125429616	9
1	130	7.351126160597	10
1	130	7.351126160597	11
1	163	8.548617955679	12
1	163	8.548617955679	13
1	180	9.522229221638	14
1	180	9.522229221638	15
1	204	11.496848856881	16
1	204	11.496848856881	17
1	248	13.117505509089	18
1	248	13.117505509089	19
1	257	15.821219487252	20
1	257	15.821219487252	21
1	283	17.451129598833	22
1	283	17.451129598833	23
1	304	18.788166952543	24
1	304	18.788166952543	25
1	314	19.804886773835	26
1	314	19.804886773835	27
1	340	20.897314385313	28
1	340	20.897314385313	29
1	353	22.320265429108	30
1	353	22.320265429108	31
1	359	24.027600642094	32
1	359	24.027600642094	33
1	381	25.527423997424	34
1	381	25.527423997424	35
1	418	26.60227017331	36
1	418	26.60227017331	37
1	431	28.518894348459	38
1	431	28.518894348459	39
1	453	29.72732709948	40
1	453	29.72732709948	41
1	479	30.832440030587	42
1	479	30.832440030587	43
1	503	31.851449730928	44
1	503	31.851449730928	45
1	525	32.966368418702	46
1	525	32.966368418702	47
1	551	34.057223420602	48
1	551	34.057223420602	49
1	583	35.921903275196	50
1	583	35.921903275196	51
1	602	36.983479291929	52
1	602	36.983479291929	53
1	620	38.421169727036	54
1	620	38.421169727036	55
1	645	39.656276493033	56
1	645	39.656276493033	57
1	677	41.124862415189	58
1	677	41.124862415189	59
1	691	42.597965406635	60
1	691	42.597965406635	61
1	721	44.306737323315	62
1	721	44.306737323315	63
1	741	45.898152492413	64
1	741	45.898152492413	65
1	767	47.539126718606	66
1	767	47.539126718606	67
1	796	48.628874628433	68
1	796	48.628874628433	69
1	817	49.860380267981	70
1	817	49.860380267981	71
1	838	51.064463130797	72
1	838	51.064463130797	73
1	863	52.133577053795	74
1	863	52.133577053795	75
1	894	53.713994593902	76
1	894	53.713994593902	77
1	914	55.222936033959	78
1	914	55.222936033959	79
1	938	56.846830471074	80
1	938	56.846830471074	81
1	963	57.890223019251	82
1	963	57.890223019251	83
1	988	59.332385743532	84
1	988	59.332385743532	85
1	1014	60.602922103548	86
1	1014	60.602922103548	87
1	1038	62.598786554647	88
1	1038	62.598786554647	89
1	1056	64.28522485142	90
1	1056	64.28522485142	91
1	1081	65.857604149255	92
1	1081	65.857604149255	93
1	1118	67.859519258199	94
1	1118	67.859519258199	95
1	1131	69.757560052554	96
1	1131	69.757560052554	97
1	1157	70.908676480344	98
1	1157	70.908676480344	99
1	1190	72.401659407938	100
1	1190	72.401659407938	101
1	1206	73.838390268146	102
1	1206	73.838390268146	103
1	1236	75.0463909507	104
1	1236	75.0463909507	105
1	1256	76.1426671125	106
1	1256	76.1426671125	107
1	1281	77.53931491119	108
1	1281	77.53931491119	109
1	1306	78.834222186807	110
1	1306	78.834222186807	111
1	1332	80.597773411161	112
1	1332	80.597773411161	113
1	1357	81.870402390352	114
1	1357	81.870402390352	115
1	1382	82.937524480049	116
1	1382	82.937524480049	117
1	1402	84.45442386888	118
1	1402	84.45442386888	119
1	1431	85.466024780084	120
1	1431	85.466024780084	121
1	1464	87.414933138718	122
1	1464	87.414933138718	123
1	1470	88.973138138203	124
1	1470	88.973138138203	125
1	1496	90.737129471854	126
1	1496	90.737129471854	127
1	1521	92.490948987224	128
1	1521	92.490948987224	129
1	1539	93.97548132925	130
1	1539	93.97548132925	131
1	1578	95.352212353508	132
1	1578	95.352212353508	133
1	1589	96.684389287647	134
1	1589	96.684389287647	135
1	1614	98.200728284608	136
1	1614	98.200728284608	137
1	1639	99.603229363202	138
1	1639	99.603229363202	139
1	1664	101.497460454698	140
1	1664	101.497460454698	141
1	1703	102.848850900324	142
1	1703	102.848850900324	143
1	1715	104.260518648212	144
1	1715	104.260518648212	145
1	1739	105.578342050706	146
1	1739	105.578342050706	147
1	1764	106.579910730796	148
1	1764	106.579910730796	149
1	1789	108.411268769192	150
1	1789	108.411268769192	151
1	1815	109.429818777255	152
1	1815	109.429818777255	153
1	1839	111.414539161432	154
1	1839	111.414539161432	155
1	1864	112.577774669425	156
1	1864	112.577774669425	157
1	1890	114.051027983854	158
1	1890	114.051027983854	159
1	1912	115.952677337629	160
1	1912	115.952677337629	161
1	1938	117.97548241399	162
1	1938	117.97548241399	163
1	1956	119.562655897289	164
1	1956	119.562655897289	165
1	1980	121.056669988629	166
1	1980	121.056669988629	167
1	2010	122.831925719694	168
1	2010	122.831925719694	169
1	2027	124.382283237861	170
1	2027	124.382283237861	171
1	2063	126.334440341991	172
1	2063	126.334440341991	173
1	2077	128.006129466762	174
1	2077	128.006129466762	175
1	2099	129.328435092094	176
1	2099	129.328435092094	177
1	2121	131.000591844611	178
1	2121	131.000591844611	179
1	2147	132.025558181402	180
1	2147	132.025558181402	181
1	2171	133.713656990316	182
1	2171	133.713656990316	183
1	2197	135.021580800746	184
1	2197	135.021580800746	185
1	2221	136.740031370833	186
1	2221	136.740031370833	187
1	2247	138.733071956047	188
1	2247	138.733071956047	189
1	2272	140.67243786351	190
1	2272	140.67243786351	191
1	2297	142.119840820303	192
1	2297	142.119840820303	193
1	2318	144.079824760258	194
1	2318	144.079824760258	195
1	2348	145.748914331996	196
1	2348	145.748914331996	197
1	2368	146.749668070713	198
1	2368	146.749668070713	199
1	2402	147.823665717233	200
1	2402	147.823665717233	201
1	2418	148.864474355321	202
1	2418	148.864474355321	203
1	2460	150.234358649398	204
1	2460	150.234358649398	205
1	2468	151.256353668571	206
1	2468	151.256353668571	207
1	2493	152.905197295235	208
1	2493	152.905197295235	209
1	2520	154.836410563744	210
1	2520	154.836410563744	211
1	2556	156.746776673624	212
1	2556	156.746776673624	213
1	2566	157.882577308016	214
1	2566	157.882577308016	215
1	2590	158.906091684203	216
1	2590	158.906091684203	217
1	2614	160.010866569086	218
1	2614	160.010866569086	219
1	2629	161.769514716651	220
1	2629	161.769514716651	221
1	2660	163.342949602876	222
1	2660	163.342949602876	223
1	2677	164.838179916746	224
1	2677	164.838179916746	225
1	2701	166.172993970709	226
1	2701	166.172993970709	227
1	2727	168.098507217202	228
1	2727	168.098507217202	229
1	2752	169.632144114882	230
1	2752	169.632144114882	231
1	2776	170.862835520853	232
1	2776	170.862835520853	233
1	2802	172.009108230709	234
1	2802	172.009108230709	235
1	2826	173.516030389763	236
1	2826	173.516030389763	237
1	2866	174.786384238499	238
1	2866	174.786384238499	239
1	2876	175.89958402208	240
1	2876	175.89958402208	241
1	2893	177.338920703974	242
1	2893	177.338920703974	243
1	2925	178.673681136846	244
1	2925	178.673681136846	245
1	2940	180.408116165796	246
1	2940	180.408116165796	247
1	2965	182.219507731859	248
1	2965	182.219507731859	249
1	2991	183.347722854256	250
1	2991	183.347722854256	251
1	3013	185.338320794874	252
1	3013	185.338320794874	253
1	3037	186.421907248218	254
1	3037	186.421907248218	255
1	3062	187.980863569643	256
1	3062	187.980863569643	257
1	3088	189.807863330256	258
1	3088	189.807863330256	259
1	3113	191.543204089138	260
1	3113	191.543204089138	261
1	3134	193.209184096576	262
1	3134	193.209184096576	263
1	3159	195.117443607272	264
1	3159	195.117443607272	265
1	3184	196.202718607526	266
1	3184	196.202718607526	267
1	3210	197.42133197544	268
1	3210	197.42133197544	269
1	3234	198.821511242598	270
1	3234	198.821511242598	271
1	3259	200.494576523167	272
1	3259	200.494576523167	273
1	3284	202.158334944587	274
1	3284	202.158334944587	275
1	3310	203.220571532586	276
1	3310	203.220571532586	277
1	3334	204.38720922661	278
1	3334	204.38720922661	279
1	3360	205.778697479718	280
1	3360	205.778697479718	281
1	3392	206.92282390232	282
1	3392	206.92282390232	283
1	3419	208.086436871638	284
1	3419	208.086436871638	285
1	3430	209.38472850094	286
1	3430	209.38472850094	287
1	3461	210.636147787105	288
1	3461	210.636147787105	289
1	3478	212.104441068387	290
1	3478	212.104441068387	291
1	3505	213.359388455099	292
1	3505	213.359388455099	293
1	3524	214.708972912455	294
1	3524	214.708972912455	295
1	3549	215.797936814026	296
1	3549	215.797936814026	297
1	3588	217.291216529926	298
1	3588	217.291216529926	299
1	3599	218.435394042406	300
1	3599	218.435394042406	301
1	3636	219.630982895581	302
1	3636	219.630982895581	303
1	3653	221.018491117498	304
1	3653	221.018491117498	305
1	3671	222.655727766441	306
1	3671	222.655727766441	307
1	3696	223.742077993183	308
1	3696	223.742077993183	309
1	3722	225.621187273142	310
1	3722	225.621187273142	311
1	3756	227.453336175322	312
1	3756	227.453336175322	313
1	3782	228.696112939433	314
1	3782	228.696112939433	315
1	3802	230.38248434395	316
1	3802	230.38248434395	317
1	3818	231.691181009349	318
1	3818	231.691181009349	319
1	3837	232.909191025045	320
1	3837	232.909191025045	321
1	3862	234.62584065089	322
1	3862	234.62584065089	323
1	3886	236.085543042924	324
1	3886	236.085543042924	325
1	3911	237.203073923272	326
1	3911	237.203073923272	327
1	3936	238.29734433594	328
1	3936	238.29734433594	329
1	3961	239.543981102672	330
1	3961	239.543981102672	331
2	7	0.127447623789	0
2	7	0.127447623789	1
2	7	0.127447623789	2
2	35	1.307861062436	3
2	35	1.307861062436	4
2	35	1.307861062436	5
2	59	2.81831255688	6
2	59	2.81831255688	7
2	59	2.81831255688	8
2	83	4.391778872466	9
2	83	4.391778872466	10
2	83	4.391778872466	11
2	107	5.551364362399	12
2	107	5.551364362399	13
2	107	5.551364362399	14
2	136	7.371520861249	15
2	136	7.371520861249	16
2	136	7.371520861249	17
2	158	8.538359125282	18
2	158	8.538359125282	19
2	158	8.538359125282	20
2	187	9.548497714241	21
2	187	9.548497714241	22
2	187	9.548497714241	23
2	215	11.522872767638	24
2	215	11.522872767638	25
2	215	11.522872767638	26
2	234	13.095481747539	27
2	234	13.095481747539	28
2	234	13.095481747539	29
2	260	15.832220873981	30
2	260	15.832220873981	31
2	260	15.832220873981	32
2	289	17.46286918865	33
2	289	17.46286918865	34
2	289	17.46286918865	35
2	307	18.822319510384	36
2	307	18.822319510384	37
2	307	18.822319510384	38
2	317	19.820865629712	39
2	317	19.820865629712	40
2	317	19.820865629712	41
2	346	20.910020531835	42
2	346	20.910020531835	43
2	346	20.910020531835	44
2	362	24.048905998996	45
2	362	24.048905998996	46
2	362	24.048905998996	47
2	385	25.555875453301	48
2	385	25.555875453301	49
2	385	25.555875453301	50
2	410	26.580951020854	51
2	410	26.580951020854	52
2	410	26.580951020854	53
2	434	28.533186830044	54
2	434	28.533186830044	55
2	434	28.533186830044	56
2	460	29.766781929596	57
2	460	29.766781929596	58
2	460	29.766781929596	59
2	485	30.843997919884	60
2	485	30.843997919884	61
2	485	30.843997919884	62
2	507	31.866408678423	63
2	507	31.866408678423	64
2	507	31.866408678423	65
2	529	32.980467563183	66
2	529	32.980467563183	67
2	529	32.980467563183	68
2	557	34.10870970797	69
2	557	34.10870970797	70
2	557	34.10870970797	71
2	579	35.909206330728	72
2	579	35.909206330728	73
2	579	35.909206330728	74
2	612	36.998863199144	75
2	612	36.998863199144	76
2	612	36.998863199144	77
2	632	38.448114712702	78
2	632	38.448114712702	79
2	632	38.448114712702	80
2	650	39.664464040776	81
2	650	39.664464040776	82
2	650	39.664464040776	83
2	673	41.112363655269	84
2	673	41.112363655269	85
2	673	41.112363655269	86
2	699	42.627360869627	87
2	699	42.627360869627	88
2	699	42.627360869627	89
2	720	44.304024430776	90
2	720	44.304024430776	91
2	720	44.304024430776	92
2	748	45.920566493996	93
2	748	45.920566493996	94
2	748	45.920566493996	95
2	771	47.544617646886	96
2	771	47.544617646886	97
2	771	47.544617646886	98
2	804	48.646628207816	99
2	804	48.646628207816	100
2	804	48.646628207816	101
2	821	49.868540391177	102
2	821	49.868540391177	103
2	821	49.868540391177	104
2	845	51.098769449432	105
2	845	51.098769449432	106
2	845	51.098769449432	107
2	867	52.145865428981	108
2	867	52.145865428981	109
2	867	52.145865428981	110
2	893	53.71359385631	111
2	893	53.71359385631	112
2	893	53.71359385631	113
2	920	55.23641677048	114
2	920	55.23641677048	115
2	920	55.23641677048	116
2	941	56.857890594853	117
2	941	56.857890594853	118
2	941	56.857890594853	119
2	971	57.905994900285	120
2	971	57.905994900285	121
2	971	57.905994900285	122
2	992	59.342909810558	123
2	992	59.342909810558	124
2	992	59.342909810558	125
2	1018	60.603729760365	126
2	1018	60.603729760365	127
2	1018	60.603729760365	128
2	1039	62.601697579934	129
2	1039	62.601697579934	130
2	1039	62.601697579934	131
2	1063	64.302282208992	132
2	1063	64.302282208992	133
2	1063	64.302282208992	134
2	1085	65.869956277923	135
2	1085	65.869956277923	136
2	1085	65.869956277923	137
2	1111	67.845047658008	138
2	1111	67.845047658008	139
2	1111	67.845047658008	140
2	1135	69.769563566947	141
2	1135	69.769563566947	142
2	1135	69.769563566947	143
2	1161	70.91660156687	144
2	1161	70.91660156687	145
2	1161	70.91660156687	146
2	1185	72.382687134905	147
2	1185	72.382687134905	148
2	1185	72.382687134905	149
2	1209	73.85317976383	150
2	1209	73.85317976383	151
2	1209	73.85317976383	152
2	1246	75.082716419336	153
2	1246	75.082716419336	154
2	1246	75.082716419336	155
2	1267	76.167884788125	156
2	1267	76.167884788125	157
2	1267	76.167884788125	158
2	1288	77.55290374724	159
2	1288	77.55290374724	160
2	1288	77.55290374724	161
2	1313	78.860069551122	162
2	1313	78.860069551122	163
2	1313	78.860069551122	164
2	1342	80.628588182113	165
2	1342	80.628588182113	166
2	1342	80.628588182113	167
2	1364	81.880680069346	168
2	1364	81.880680069346	169
2	1364	81.880680069346	170
2	1386	82.94739226301	171
2	1386	82.94739226301	172
2	1386	82.94739226301	173
2	1405	84.473222680369	174
2	1405	84.473222680369	175
2	1405	84.473222680369	176
2	1432	85.466076070025	177
2	1432	85.466076070025	178
2	1432	85.466076070025	179
2	1454	87.39314124874	180
2	1454	87.39314124874	181
2	1454	87.39314124874	182
2	1473	88.985566095181	183
2	1473	88.985566095181	184
2	1473	88.985566095181	185
2	1497	90.74085709787	186
2	1497	90.74085709787	187
2	1497	90.74085709787	188
2	1524	92.503344721882	189
2	1524	92.503344721882	190
2	1524	92.503344721882	191
2	1542	93.991620165291	192
2	1542	93.991620165291	193
2	1542	93.991620165291	194
2	1568	95.33156848139	195
2	1568	95.33156848139	196
2	1568	95.33156848139	197
2	1596	96.697652861404	198
2	1596	96.697652861404	199
2	1596	96.697652861404	200
2	1618	98.211752941747	201
2	1618	98.211752941747	202
2	1618	98.211752941747	203
2	1646	99.618237274251	204
2	1646	99.618237274251	205
2	1646	99.618237274251	206
2	1668	101.510409123637	207
2	1668	101.510409123637	208
2	1668	101.510409123637	209
2	1694	102.831007507228	210
2	1694	102.831007507228	211
2	1694	102.831007507228	212
2	1722	104.278754207193	213
2	1722	104.278754207193	214
2	1722	104.278754207193	215
2	1747	105.601248317459	216
2	1747	105.601248317459	217
2	1747	105.601248317459	218
2	1767	106.593485349987	219
2	1767	106.593485349987	220
2	1767	106.593485349987	221
2	1792	108.424843570925	222
2	1792	108.424843570925	223
2	1792	108.424843570925	224
2	1826	109.458760437926	225
2	1826	109.458760437926	226
2	1826	109.458760437926	227
2	1843	111.427787120614	228
2	1843	111.427787120614	229
2	1843	111.427787120614	230
2	1868	112.589492204784	231
2	1868	112.589492204784	232
2	1868	112.589492204784	233
2	1896	114.064982473213	234
2	1896	114.064982473213	235
2	1896	114.064982473213	236
2	1916	115.955964721336	237
2	1916	115.955964721336	238
2	1916	115.955964721336	239
2	1937	117.971839111987	240
2	1937	117.971839111987	241
2	1937	117.971839111987	242
2	1960	119.568423167546	243
2	1960	119.568423167546	244
2	1960	119.568423167546	245
2	1987	121.069321665764	246
2	1987	121.069321665764	247
2	1987	121.069321665764	248
2	2011	122.834170654813	249
2	2011	122.834170654813	250
2	2011	122.834170654813	251
2	2034	124.395604953986	252
2	2034	124.395604953986	253
2	2034	124.395604953986	254
2	2057	126.327059034792	255
2	2057	126.327059034792	256
2	2057	126.327059034792	257
2	2080	128.017103726028	258
2	2080	128.017103726028	259
2	2080	128.017103726028	260
2	2106	129.350917921951	261
2	2106	129.350917921951	262
2	2106	129.350917921951	263
2	2124	131.02573630379	264
2	2124	131.02573630379	265
2	2124	131.02573630379	266
2	2152	132.034650217316	267
2	2152	132.034650217316	268
2	2152	132.034650217316	269
2	2174	133.736546151002	270
2	2174	133.736546151002	271
2	2174	133.736546151002	272
2	2209	135.052671404094	273
2	2209	135.052671404094	274
2	2209	135.052671404094	275
2	2224	136.771114185501	276
2	2224	136.771114185501	277
2	2224	136.771114185501	278
2	2251	138.738433889358	279
2	2251	138.738433889358	280
2	2251	138.738433889358	281
2	2275	140.685598771482	282
2	2275	140.685598771482	283
2	2275	140.685598771482	284
2	2308	142.158218765848	285
2	2308	142.158218765848	286
2	2308	142.158218765848	287
2	2322	144.091494949269	288
2	2322	144.091494949269	289
2	2322	144.091494949269	290
2	2352	145.749769113114	291
2	2352	145.749769113114	292
2	2352	145.749769113114	293
2	2371	146.761111628588	294
2	2371	146.761111628588	295
2	2371	146.761111628588	296
2	2411	147.855530130269	297
2	2411	147.855530130269	298
2	2411	147.855530130269	299
2	2422	148.878875981918	300
2	2422	148.878875981918	301
2	2422	148.878875981918	302
2	2447	150.209871385672	303
2	2447	150.209871385672	304
2	2447	150.209871385672	305
2	2479	151.291964681487	306
2	2479	151.291964681487	307
2	2479	151.291964681487	308
2	2496	152.929082426713	309
2	2496	152.929082426713	310
2	2496	152.929082426713	311
2	2519	154.832158733558	312
2	2519	154.832158733558	313
2	2519	154.832158733558	314
2	2549	156.731079344333	315
2	2549	156.731079344333	316
2	2549	156.731079344333	317
2	2572	157.896144563811	318
2	2572	157.896144563811	319
2	2572	157.896144563811	320
2	2593	158.921190538898	321
2	2593	158.921190538898	322
2	2593	158.921190538898	323
2	2613	160.003804455542	324
2	2613	160.003804455542	325
2	2613	160.003804455542	326
2	2633	161.784646115611	327
2	2633	161.784646115611	328
2	2633	161.784646115611	329
2	2658	163.335106791188	330
2	2658	163.335106791188	331
2	2658	163.335106791188	332
2	2681	164.844595097846	333
2	2681	164.844595097846	334
2	2681	164.844595097846	335
2	2705	166.185270101663	336
2	2705	166.185270101663	337
2	2705	166.185270101663	338
2	2733	168.120671772907	339
2	2733	168.120671772907	340
2	2733	168.120671772907	341
2	2759	169.645582272637	342
2	2759	169.645582272637	343
2	2759	169.645582272637	344
2	2784	170.883638453778	345
2	2784	170.883638453778	346
2	2784	170.883638453778	347
2	2808	172.026186487514	348
2	2808	172.026186487514	349
2	2808	172.026186487514	350
2	2829	173.527651141703	351
2	2829	173.527651141703	352
2	2829	173.527651141703	353
2	2862	174.771915159345	354
2	2862	174.771915159345	355
2	2862	174.771915159345	356
2	2878	175.900180359276	357
2	2878	175.900180359276	358
2	2878	175.900180359276	359
2	2904	177.372469157668	360
2	2904	177.372469157668	361
2	2904	177.372469157668	362
2	2919	178.654968249729	363
2	2919	178.654968249729	364
2	2919	178.654968249729	365
2	2948	180.423357256036	366
2	2948	180.423357256036	367
2	2948	180.423357256036	368
2	2972	182.233223010248	369
2	2972	182.233223010248	370
2	2972	182.233223010248	371
2	2997	183.358373608751	372
2	2997	183.358373608751	373
2	2997	183.358373608751	374
2	3017	185.346346160537	375
2	3017	185.346346160537	376
2	3017	185.346346160537	377
2	3045	186.44569918491	378
2	3045	186.44569918491	379
2	3045	186.44569918491	380
2	3066	187.992389115999	381
2	3066	187.992389115999	382
2	3066	187.992389115999	383
2	3092	189.813487127313	384
2	3092	189.813487127313	385
2	3092	189.813487127313	386
2	3117	191.550740650321	387
2	3117	191.550740650321	388
2	3117	191.550740650321	389
2	3138	193.234792415022	390
2	3138	193.234792415022	391
2	3138	193.234792415022	392
2	3170	195.157456056614	393
2	3170	195.157456056614	394
2	3170	195.157456056614	395
2	3192	196.222207464456	396
2	3192	196.222207464456	397
2	3192	196.222207464456	398
2	3216	197.434701408859	399
2	3216	197.434701408859	400
2	3216	197.434701408859	401
2	3241	198.839319387158	402
2	3241	198.839319387158	403
2	3241	198.839319387158	404
2	3262	200.508606592995	405
2	3262	200.508606592995	406
2	3262	200.508606592995	407
2	3292	202.182910927286	408
2	3292	202.182910927286	409
2	3292	202.182910927286	410
2	3314	203.227193854537	411
2	3314	203.227193854537	412
2	3314	203.227193854537	413
2	3337	204.399270187674	414
2	3337	204.399270187674	415
2	3337	204.399270187674	416
2	3371	205.802056057903	417
2	3371	205.802056057903	418
2	3371	205.802056057903	419
2	3384	206.904041048271	420
2	3384	206.904041048271	421
2	3384	206.904041048271	422
2	3413	208.074369665478	423
2	3413	208.074369665478	424
2	3413	208.074369665478	425
2	3433	209.395690675602	426
2	3433	209.395690675602	427
2	3433	209.395690675602	428
2	3460	210.635823781871	429
2	3460	210.635823781871	430
2	3460	210.635823781871	431
2	3485	212.120430343216	432
2	3485	212.120430343216	433
2	3485	212.120430343216	434
2	3503	213.353883851552	435
2	3503	213.353883851552	436
2	3503	213.353883851552	437
2	3532	214.732840528742	438
2	3532	214.732840528742	439
2	3532	214.732840528742	440
2	3556	215.84203139463	441
2	3556	215.84203139463	442
2	3556	215.84203139463	443
2	3578	217.273604582564	444
2	3578	217.273604582564	445
2	3578	217.273604582564	446
2	3612	218.487397666515	447
2	3612	218.487397666515	448
2	3612	218.487397666515	449
2	3628	219.619295192178	450
2	3628	219.619295192178	451
2	3628	219.619295192178	452
2	3656	221.042696396072	453
2	3656	221.042696396072	454
2	3656	221.042696396072	455
2	3674	222.667585604431	456
2	3674	222.667585604431	457
2	3674	222.667585604431	458
2	3699	223.75267539286	459
2	3699	223.75267539286	460
2	3699	223.75267539286	461
2	3726	225.628180436914	462
2	3726	225.628180436914	463
2	3726	225.628180436914	464
2	3751	227.431223147827	465
2	3751	227.431223147827	466
2	3751	227.431223147827	467
2	3772	228.670688841184	468
2	3772	228.670688841184	469
2	3772	228.670688841184	470
2	3797	230.361732261968	471
2	3797	230.361732261968	472
2	3797	230.361732261968	473
2	3822	231.709154974833	474
2	3822	231.709154974833	475
2	3822	231.709154974833	476
2	3844	232.926121517465	477
2	3844	232.926121517465	478
2	3844	232.926121517465	479
2	3869	234.652801659173	480
2	3869	234.652801659173	481
2	3869	234.652801659173	482
2	3889	236.100106322618	483
2	3889	236.100106322618	484
2	3889	236.100106322618	485
2	3918	237.234360983384	486
2	3918	237.234360983384	487
2	3918	237.234360983384	488
2	3940	238.316370365431	489
2	3940	238.316370365431	490
2	3940	238.316370365431	491
2	3965	239.557410480423	492
2	3965	239.557410480423	493
2	3965	239.557410480423	494
3	11	0.141312140479	0
3	11	0.141312140479	1
3	11	0.141312140479	2
3	29	1.289959914142	3
3	29	1.289959914142	4
3	29	1.289959914142	5
3	54	2.804007399895	6
3	54	2.804007399895	7
3	54	2.804007399895	8
3	79	4.37932919879	9
3	79	4.37932919879	10
3	79	4.37932919879	11
3	111	5.563861781039	12
3	111	5.563861781039	13
3	111	5.563861781039	14
3	129	7.347168955987	15
3	129	7.347168955987	16
3	129	7.347168955987	17
3	154	8.525964703198	18
3	154	8.525964703198	19
3	154	8.525964703198	20
3	179	9.519667828342	21
3	179	9.519667828342	22
3	179	9.519667828342	23
3	205	11.497860683264	24
3	205	11.497860683264	25
3	205	11.497860683264	26
3	229	13.07571169695	27
3	229	13.07571169695	28
3	229	13.07571169695	29
3	264	15.845558215153	30
3	264	15.845558215153	31
3	264	15.845558215153	32
3	282	17.450417822003	33
3	282	17.450417822003	34
3	282	17.450417822003	35
3	321	19.83117401892	36
3	321	19.83117401892	37
3	321	19.83117401892	38
3	339	20.896109595061	39
3	339	20.896109595061	40
3	339	20.896109595061	41
3	363	24.054974886413	42
3	363	24.054974886413	43
3	363	24.054974886413	44
3	384	25.554556082098	45
3	384	25.554556082098	46
3	384	25.554556082098	47
3	406	26.566703040714	48
3	406	26.566703040714	49
3	406	26.566703040714	50
3	439	28.551606563112	51
3	439	28.551606563112	52
3	439	28.551606563112	53
3	454	29.730541957929	54
3	454	29.730541957929	55
3	454	29.730541957929	56
3	478	30.832034001162	57
3	478	30.832034001162	58
3	478	30.832034001162	59
3	506	31.863513076793	60
3	506	31.863513076793	61
3	506	31.863513076793	62
3	528	32.977873736554	63
3	528	32.977873736554	64
3	528	32.977873736554	65
3	550	34.053735696587	66
3	550	34.053735696587	67
3	550	34.053735696587	68
3	575	35.897405746059	69
3	575	35.897405746059	70
3	575	35.897405746059	71
3	597	36.96129052634	72
3	597	36.96129052634	73
3	597	36.96129052634	74
3	619	38.419114816329	75
3	619	38.419114816329	76
3	619	38.419114816329	77
3	644	39.650039872398	78
3	644	39.650039872398	79
3	644	39.650039872398	80
3	669	41.098227140479	81
3	669	41.098227140479	82
3	669	41.098227140479	83
3	692	42.604575616849	84
3	692	42.604575616849	85
3	692	42.604575616849	86
3	716	44.291214133122	87
3	716	44.291214133122	88
3	716	44.291214133122	89
3	744	45.909340753572	90
3	744	45.909340753572	91
3	744	45.909340753572	92
3	766	47.532848085789	93
3	766	47.532848085789	94
3	766	47.532848085789	95
3	791	48.611425056545	96
3	791	48.611425056545	97
3	791	48.611425056545	98
3	816	49.85819162462	99
3	816	49.85819162462	100
3	816	49.85819162462	101
3	839	51.073723047567	102
3	839	51.073723047567	103
3	839	51.073723047567	104
3	866	52.144538778689	105
3	866	52.144538778689	106
3	866	52.144538778689	107
3	888	53.695679331552	108
3	888	53.695679331552	109
3	888	53.695679331552	110
3	913	55.218920472982	111
3	913	55.218920472982	112
3	913	55.218920472982	113
3	945	56.871536346319	114
3	945	56.871536346319	115
3	945	56.871536346319	116
3	964	57.894474467974	117
3	964	57.894474467974	118
3	964	57.894474467974	119
3	989	59.336534851359	120
3	989	59.336534851359	121
3	989	59.336534851359	122
3	1013	60.593435832937	123
3	1013	60.593435832937	124
3	1013	60.593435832937	125
3	1034	62.579340814493	126
3	1034	62.579340814493	127
3	1034	62.579340814493	128
3	1057	64.289677811268	129
3	1057	64.289677811268	130
3	1057	64.289677811268	131
3	1082	65.862633538803	132
3	1082	65.862633538803	133
3	1082	65.862633538803	134
3	1106	67.826891262227	135
3	1106	67.826891262227	136
3	1106	67.826891262227	137
3	1132	69.760809374557	138
3	1132	69.760809374557	139
3	1132	69.760809374557	140
3	1156	70.906545687894	141
3	1156	70.906545687894	142
3	1156	70.906545687894	143
3	1181	72.371590494322	144
3	1181	72.371590494322	145
3	1181	72.371590494322	146
3	1213	73.863375389193	147
3	1213	73.863375389193	148
3	1213	73.863375389193	149
3	1231	75.033964671196	150
3	1231	75.033964671196	151
3	1231	75.033964671196	152
3	1257	76.143941546283	153
3	1257	76.143941546283	154
3	1257	76.143941546283	155
3	1282	77.540424012895	156
3	1282	77.540424012895	157
3	1282	77.540424012895	158
3	1309	78.845646530023	159
3	1309	78.845646530023	160
3	1309	78.845646530023	161
3	1331	80.596746003017	162
3	1331	80.596746003017	163
3	1331	80.596746003017	164
3	1356	81.866445577756	165
3	1356	81.866445577756	166
3	1356	81.866445577756	167
3	1381	82.936639650096	168
3	1381	82.936639650096	169
3	1381	82.936639650096	170
3	1410	84.496962297552	171
3	1410	84.496962297552	172
3	1410	84.496962297552	173
3	1427	85.455040486366	174
3	1427	85.455040486366	175
3	1427	85.455040486366	176
3	1449	87.376149165535	177
3	1449	87.376149165535	178
3	1449	87.376149165535	179
3	1474	88.985590674317	180
3	1474	88.985590674317	181
3	1474	88.985590674317	182
3	1492	90.724883415152	183
3	1492	90.724883415152	184
3	1492	90.724883415152	185
3	1517	92.472327009116	186
3	1517	92.472327009116	187
3	1517	92.472327009116	188
3	1543	93.997688747193	189
3	1543	93.997688747193	190
3	1543	93.997688747193	191
3	1564	95.316776549402	192
3	1564	95.316776549402	193
3	1564	95.316776549402	194
3	1590	96.686893839858	195
3	1590	96.686893839858	196
3	1590	96.686893839858	197
3	1615	98.206522911264	198
3	1615	98.206522911264	199
3	1615	98.206522911264	200
3	1640	99.606783726131	201
3	1640	99.606783726131	202
3	1640	99.606783726131	203
3	1665	101.503359739023	204
3	1665	101.503359739023	205
3	1665	101.503359739023	206
3	1689	102.815803220253	207
3	1689	102.815803220253	208
3	1689	102.815803220253	209
3	1714	104.258736449818	210
3	1714	104.258736449818	211
3	1714	104.258736449818	212
3	1740	105.579654156616	213
3	1740	105.579654156616	214
3	1740	105.579654156616	215
3	1772	106.616622420444	216
3	1772	106.616622420444	217
3	1772	106.616622420444	218
3	1796	108.45890372267	219
3	1796	108.45890372267	220
3	1796	108.45890372267	221
3	1814	109.42739728696	222
3	1814	109.42739728696	223
3	1814	109.42739728696	224
3	1842	111.424637135331	225
3	1842	111.424637135331	226
3	1842	111.424637135331	227
3	1865	112.583920314785	228
3	1865	112.583920314785	229
3	1865	112.583920314785	230
3	1889	114.047300233008	231
3	1889	114.047300233008	232
3	1889	114.047300233008	233
3	1911	115.945130079992	234
3	1911	115.945130079992	235
3	1911	115.945130079992	236
3	1933	117.961835228326	237
3	1933	117.961835228326	238
3	1933	117.961835228326	239
3	1955	119.556180901799	240
3	1955	119.556180901799	241
3	1955	119.556180901799	242
3	1981	121.058475910352	243
3	1981	121.058475910352	244
3	1981	121.058475910352	245
3	2005	122.816792526598	246
3	2005	122.816792526598	247
3	2005	122.816792526598	248
3	2028	124.385368230747	249
3	2028	124.385368230747	250
3	2028	124.385368230747	251
3	2052	126.308037202543	252
3	2052	126.308037202543	253
3	2052	126.308037202543	254
3	2085	128.029165945523	255
3	2085	128.029165945523	256
3	2085	128.029165945523	257
3	2100	129.332874710351	258
3	2100	129.332874710351	259
3	2100	129.332874710351	260
3	2128	131.035923428699	261
3	2128	131.035923428699	262
3	2128	131.035923428699	263
3	2146	132.022092625264	264
3	2146	132.022092625264	265
3	2146	132.022092625264	266
3	2175	133.741113858828	267
3	2175	133.741113858828	268
3	2175	133.741113858828	269
3	2196	135.016936927518	270
3	2196	135.016936927518	271
3	2196	135.016936927518	272
3	2232	136.806855220859	273
3	2232	136.806855220859	274
3	2232	136.806855220859	275
3	2246	138.724907475731	276
3	2246	138.724907475731	277
3	2246	138.724907475731	278
3	2268	140.657493525774	279
3	2268	140.657493525774	280
3	2268	140.657493525774	281
3	2293	142.107041730075	282
3	2293	142.107041730075	283
3	2293	142.107041730075	284
3	2321	144.089962777005	285
3	2321	144.089962777005	286
3	2321	144.089962777005	287
3	2343	145.725356420197	288
3	2343	145.725356420197	289
3	2343	145.725356420197	290
3	2375	146.7718283135	291
3	2375	146.7718283135	292
3	2375	146.7718283135	293
3	2393	147.791129491911	294
3	2393	147.791129491911	295
3	2393	147.791129491911	296
3	2419	148.870593796139	297
3	2419	148.870593796139	298
3	2419	148.870593796139	299
3	2443	150.197396022027	300
3	2443	150.197396022027	301
3	2443	150.197396022027	302
3	2469	151.256548852097	303
3	2469	151.256548852097	304
3	2469	151.256548852097	305
3	2500	152.940043964058	306
3	2500	152.940043964058	307
3	2500	152.940043964058	308
3	2515	154.81894954184	309
3	2515	154.81894954184	310
3	2515	154.81894954184	311
3	2540	156.701638525797	312
3	2540	156.701638525797	313
3	2540	156.701638525797	314
3	2565	157.880756201078	315
3	2565	157.880756201078	316
3	2565	157.880756201078	317
3	2604	159.977633929565	318
3	2604	159.977633929565	319
3	2604	159.977633929565	320
3	2630	161.775692424608	321
3	2630	161.775692424608	322
3	2630	161.775692424608	323
3	2654	163.322404164219	324
3	2654	163.322404164219	325
3	2654	163.322404164219	326
3	2676	164.832345349219	327
3	2676	164.832345349219	328
3	2676	164.832345349219	329
3	2702	166.175421062558	330
3	2702	166.175421062558	331
3	2702	166.175421062558	332
3	2726	168.09575538166	333
3	2726	168.09575538166	334
3	2726	168.09575538166	335
3	2751	169.624476619333	336
3	2751	169.624476619333	337
3	2751	169.624476619333	338
3	2777	170.863127704191	339
3	2777	170.863127704191	340
3	2777	170.863127704191	341
3	2801	172.00878008821	342
3	2801	172.00878008821	343
3	2801	172.00878008821	344
3	2830	173.531551586093	345
3	2830	173.531551586093	346
3	2830	173.531551586093	347
3	2847	174.705088690055	348
3	2847	174.705088690055	349
3	2847	174.705088690055	350
3	2872	175.888040424555	351
3	2872	175.888040424555	352
3	2872	175.888040424555	353
3	2894	177.342568109543	354
3	2894	177.342568109543	355
3	2894	177.342568109543	356
3	2915	178.640620858598	357
3	2915	178.640620858598	358
3	2915	178.640620858598	359
3	2941	180.410159392238	360
3	2941	180.410159392238	361
3	2941	180.410159392238	362
3	2966	182.220332652328	363
3	2966	182.220332652328	364
3	2966	182.220332652328	365
3	2990	183.344755712757	366
3	2990	183.344755712757	367
3	2990	183.344755712757	368
3	3012	185.335571778566	369
3	3012	185.335571778566	370
3	3012	185.335571778566	371
3	3038	186.425996006095	372
3	3038	186.425996006095	373
3	3038	186.425996006095	374
3	3063	187.98253581062	375
3	3063	187.98253581062	376
3	3063	187.98253581062	377
3	3087	189.803035707927	378
3	3087	189.803035707927	379
3	3087	189.803035707927	380
3	3112	191.536723897449	381
3	3112	191.536723897449	382
3	3112	191.536723897449	383
3	3137	193.231679522605	384
3	3137	193.231679522605	385
3	3137	193.231679522605	386
3	3160	195.123138539763	387
3	3160	195.123138539763	388
3	3160	195.123138539763	389
3	3185	196.203615072324	390
3	3185	196.203615072324	391
3	3185	196.203615072324	392
3	3209	197.416798701289	393
3	3209	197.416798701289	394
3	3209	197.416798701289	395
3	3235	198.822468742323	396
3	3235	198.822468742323	397
3	3235	198.822468742323	398
3	3266	200.520113660621	399
3	3266	200.520113660621	400
3	3266	200.520113660621	401
3	3285	202.162535912625	402
3	3285	202.162535912625	403
3	3285	202.162535912625	404
3	3309	203.213014607924	405
3	3309	203.213014607924	406
3	3309	203.213014607924	407
3	3342	204.418700124685	408
3	3342	204.418700124685	409
3	3342	204.418700124685	410
3	3359	205.774776213949	411
3	3359	205.774776213949	412
3	3359	205.774776213949	413
3	3380	206.887392308726	414
3	3380	206.887392308726	415
3	3380	206.887392308726	416
3	3405	208.049503771298	417
3	3405	208.049503771298	418
3	3405	208.049503771298	419
3	3437	209.415499495145	420
3	3437	209.415499495145	421
3	3437	209.415499495145	422
3	3455	210.615823067317	423
3	3455	210.615823067317	424
3	3455	210.615823067317	425
3	3477	212.104438864235	426
3	3477	212.104438864235	427
3	3477	212.104438864235	428
3	3499	213.336842763166	429
3	3499	213.336842763166	430
3	3499	213.336842763166	431
3	3525	214.714560861551	432
3	3525	214.714560861551	433
3	3525	214.714560861551	434
3	3552	215.81710077726	435
3	3552	215.81710077726	436
3	3552	215.81710077726	437
3	3574	217.259831896919	438
3	3574	217.259831896919	439
3	3574	217.259831896919	440
3	3600	218.443433776267	441
3	3600	218.443433776267	442
3	3600	218.443433776267	443
3	3624	219.607389065054	444
3	3624	219.607389065054	445
3	3624	219.607389065054	446
3	3649	220.991448399318	447
3	3649	220.991448399318	448
3	3649	220.991448399318	449
3	3683	222.697708178922	450
3	3683	222.697708178922	451
3	3683	222.697708178922	452
3	3703	223.76280799817	453
3	3703	223.76280799817	454
3	3703	223.76280799817	455
3	3721	225.612906288434	456
3	3721	225.612906288434	457
3	3721	225.612906288434	458
3	3743	227.395734567657	459
3	3743	227.395734567657	460
3	3743	227.395734567657	461
3	3768	228.659490708167	462
3	3768	228.659490708167	463
3	3768	228.659490708167	464
3	3793	230.350546820516	465
3	3793	230.350546820516	466
3	3793	230.350546820516	467
3	3814	231.67948108609	468
3	3814	231.67948108609	469
3	3814	231.67948108609	470
3	3836	232.905771118707	471
3	3836	232.905771118707	472
3	3836	232.905771118707	473
3	3861	234.621791515324	474
3	3861	234.621791515324	475
3	3861	234.621791515324	476
3	3894	236.116421209437	477
3	3894	236.116421209437	478
3	3894	236.116421209437	479
3	3912	237.210758879222	480
3	3912	237.210758879222	481
3	3912	237.210758879222	482
3	3939	238.312691114817	483
3	3939	238.312691114817	484
3	3939	238.312691114817	485
3	3964	239.555032676504	486
3	3964	239.555032676504	487
3	3964	239.555032676504	488
4	15	0.152589912208	0
4	15	0.152589912208	1
4	15	0.152589912208	2
4	34	1.305190715394	3
4	34	1.305190715394	4
4	34	1.305190715394	5
4	60	2.820314523948	6
4	60	2.820314523948	7
4	60	2.820314523948	8
4	94	4.439335491878	9
4	94	4.439335491878	10
4	94	4.439335491878	11
4	119	5.62477808259	12
4	119	5.62477808259	13
4	119	5.62477808259	14
4	144	7.402441502701	15
4	144	7.402441502701	16
4	144	7.402441502701	17
4	159	8.540459302736	18
4	159	8.540459302736	19
4	159	8.540459302736	20
4	186	9.543077205561	21
4	186	9.543077205561	22
4	186	9.543077205561	23
4	211	11.510356045156	24
4	211	11.510356045156	25
4	211	11.510356045156	26
4	233	13.087656190902	27
4	233	13.087656190902	28
4	233	13.087656190902	29
4	269	15.85582559969	30
4	269	15.85582559969	31
4	269	15.85582559969	32
4	294	17.473956289042	33
4	294	17.473956289042	34
4	294	17.473956289042	35
4	326	19.84460493432	36
4	326	19.84460493432	37
4	326	19.84460493432	38
4	371	24.068452657657	39
4	371	24.068452657657	40
4	371	24.068452657657	41
4	389	25.565257466363	42
4	389	25.565257466363	43
4	389	25.565257466363	44
4	411	26.584450575063	45
4	411	26.584450575063	46
4	411	26.584450575063	47
4	443	28.557901428416	48
4	443	28.557901428416	49
4	443	28.557901428416	50
4	465	29.784207314825	51
4	465	29.784207314825	52
4	465	29.784207314825	53
4	489	30.857250993	54
4	489	30.857250993	55
4	489	30.857250993	56
4	514	31.886781463219	57
4	514	31.886781463219	58
4	514	31.886781463219	59
4	533	32.988495763498	60
4	533	32.988495763498	61
4	533	32.988495763498	62
4	558	34.116619886951	63
4	558	34.116619886951	64
4	558	34.116619886951	65
4	584	35.92977055392	66
4	584	35.92977055392	67
4	584	35.92977055392	68
4	601	36.975956905481	69
4	601	36.975956905481	70
4	601	36.975956905481	71
4	626	38.431735552362	72
4	626	38.431735552362	73
4	626	38.431735552362	74
4	649	39.660134825509	75
4	649	39.660134825509	76
4	649	39.660134825509	77
4	679	41.133615803309	78
4	679	41.133615803309	79
4	679	41.133615803309	80
4	698	42.621385989303	81
4	698	42.621385989303	82
4	698	42.621385989303	83
4	722	44.308247359331	84
4	722	44.308247359331	85
4	722	44.308247359331	86
4	749	45.92960105258	87
4	749	45.92960105258	88
4	749	45.92960105258	89
4	777	47.55469760513	90
4	777	47.55469760513	91
4	777	47.55469760513	92
4	795	48.62238616215	93
4	795	48.62238616215	94
4	795	48.62238616215	95
4	822	49.869864765416	96
4	822	49.869864765416	97
4	822	49.869864765416	98
4	850	51.115547056156	99
4	850	51.115547056156	100
4	850	51.115547056156	101
4	874	52.15632314226	102
4	874	52.15632314226	103
4	874	52.15632314226	104
4	892	53.712141752702	105
4	892	53.712141752702	106
4	892	53.712141752702	107
4	921	55.238147203396	108
4	921	55.238147203396	109
4	921	55.238147203396	110
4	953	56.908738092731	111
4	953	56.908738092731	112
4	953	56.908738092731	113
4	970	57.904763696324	114
4	970	57.904763696324	115
4	970	57.904763696324	116
4	996	59.351086562213	117
4	996	59.351086562213	118
4	996	59.351086562213	119
4	1024	60.617774912077	120
4	1024	60.617774912077	121
4	1024	60.617774912077	122
4	1049	62.626347858255	123
4	1049	62.626347858255	124
4	1049	62.626347858255	125
4	1071	64.326232923143	126
4	1071	64.326232923143	127
4	1071	64.326232923143	128
4	1093	65.880638317666	129
4	1093	65.880638317666	130
4	1093	65.880638317666	131
4	1110	67.842725280351	132
4	1110	67.842725280351	133
4	1110	67.842725280351	134
4	1142	69.791342555106	135
4	1142	69.791342555106	136
4	1142	69.791342555106	137
4	1167	70.930232325181	138
4	1167	70.930232325181	139
4	1167	70.930232325181	140
4	1189	72.394009548848	141
4	1189	72.394009548848	142
4	1189	72.394009548848	143
4	1217	73.877291502321	144
4	1217	73.877291502321	145
4	1217	73.877291502321	146
4	1235	75.044815950637	147
4	1235	75.044815950637	148
4	1235	75.044815950637	149
4	1263	76.157863014187	150
4	1263	76.157863014187	151
4	1263	76.157863014187	152
4	1289	77.562791342755	153
4	1289	77.562791342755	154
4	1289	77.562791342755	155
4	1321	78.88136415838	156
4	1321	78.88136415838	157
4	1321	78.88136415838	158
4	1338	80.611639984814	159
4	1338	80.611639984814	160
4	1338	80.611639984814	161
4	1361	81.877711963387	162
4	1361	81.877711963387	163
4	1361	81.877711963387	164
4	1389	82.953575082451	165
4	1389	82.953575082451	166
4	1389	82.953575082451	167
4	1417	84.5233509416	168
4	1417	84.5233509416	169
4	1417	84.5233509416	170
4	1433	85.467821340706	171
4	1433	85.467821340706	172
4	1433	85.467821340706	173
4	1453	87.386914315701	174
4	1453	87.386914315701	175
4	1453	87.386914315701	176
4	1485	89.020811824304	177
4	1485	89.020811824304	178
4	1485	89.020811824304	179
4	1498	90.741232378813	180
4	1498	90.741232378813	181
4	1498	90.741232378813	182
4	1525	92.511820263017	183
4	1525	92.511820263017	184
4	1525	92.511820263017	185
4	1551	94.01028040546	186
4	1551	94.01028040546	187
4	1551	94.01028040546	188
4	1569	95.335949700661	189
4	1569	95.335949700661	190
4	1569	95.335949700661	191
4	1597	96.698817182916	192
4	1597	96.698817182916	193
4	1597	96.698817182916	194
4	1622	98.217636970558	195
4	1622	98.217636970558	196
4	1622	98.217636970558	197
4	1654	99.657783320629	198
4	1654	99.657783320629	199
4	1654	99.657783320629	200
4	1675	101.521722145445	201
4	1675	101.521722145445	202
4	1675	101.521722145445	203
4	1693	102.826185966676	204
4	1693	102.826185966676	205
4	1693	102.826185966676	206
4	1719	104.270317347391	207
4	1719	104.270317347391	208
4	1719	104.270317347391	209
4	1746	105.59337157772	210
4	1746	105.59337157772	211
4	1746	105.59337157772	212
4	1776	106.624031666604	213
4	1776	106.624031666604	214
4	1776	106.624031666604	215
4	1800	108.475001712767	216
4	1800	108.475001712767	217
4	1800	108.475001712767	218
4	1819	109.439152190072	219
4	1819	109.439152190072	220
4	1819	109.439152190072	221
4	1850	111.440035034962	222
4	1850	111.440035034962	223
4	1850	111.440035034962	224
4	1872	112.595592241285	225
4	1872	112.595592241285	226
4	1872	112.595592241285	227
4	1897	114.066482724351	228
4	1897	114.066482724351	229
4	1897	114.066482724351	230
4	1917	115.960829601437	231
4	1917	115.960829601437	232
4	1917	115.960829601437	233
4	1939	117.975900191864	234
4	1939	117.975900191864	235
4	1939	117.975900191864	236
4	1961	119.570360102855	237
4	1961	119.570360102855	238
4	1961	119.570360102855	239
4	1988	121.072535639269	240
4	1988	121.072535639269	241
4	1988	121.072535639269	242
4	2009	122.829034954392	243
4	2009	122.829034954392	244
4	2009	122.829034954392	245
4	2038	124.407155453203	246
4	2038	124.407155453203	247
4	2038	124.407155453203	248
4	2056	126.318114336079	249
4	2056	126.318114336079	250
4	2056	126.318114336079	251
4	2092	128.044499673117	252
4	2092	128.044499673117	253
4	2092	128.044499673117	254
4	2107	129.354482621935	255
4	2107	129.354482621935	256
4	2107	129.354482621935	257
4	2136	131.052849775953	258
4	2136	131.052849775953	259
4	2136	131.052849775953	260
4	2151	132.033948227278	261
4	2151	132.033948227278	262
4	2151	132.033948227278	263
4	2183	133.755455225078	264
4	2183	133.755455225078	265
4	2183	133.755455225078	266
4	2203	135.033971823659	267
4	2203	135.033971823659	268
4	2203	135.033971823659	269
4	2236	136.81940611043	270
4	2236	136.81940611043	271
4	2236	136.81940611043	272
4	2257	138.755914442946	273
4	2257	138.755914442946	274
4	2257	138.755914442946	275
4	2283	140.766022580176	276
4	2283	140.766022580176	277
4	2283	140.766022580176	278
4	2300	142.133339639307	279
4	2300	142.133339639307	280
4	2300	142.133339639307	281
4	2329	144.107371984258	282
4	2329	144.107371984258	283
4	2329	144.107371984258	284
4	2347	145.73972410168	285
4	2347	145.73972410168	286
4	2347	145.73972410168	287
4	2379	146.783798873319	288
4	2379	146.783798873319	289
4	2379	146.783798873319	290
4	2397	147.806507256295	291
4	2397	147.806507256295	292
4	2397	147.806507256295	293
4	2430	148.891832764165	294
4	2430	148.891832764165	295
4	2430	148.891832764165	296
4	2448	150.219729343237	297
4	2448	150.219729343237	298
4	2448	150.219729343237	299
4	2475	151.270839076378	300
4	2475	151.270839076378	301
4	2475	151.270839076378	302
4	2505	152.951941861198	303
4	2505	152.951941861198	304
4	2505	152.951941861198	305
4	2526	154.850960031532	306
4	2526	154.850960031532	307
4	2526	154.850960031532	308
4	2544	156.711956639514	309
4	2544	156.711956639514	310
4	2544	156.711956639514	311
4	2573	157.9000792801	312
4	2573	157.9000792801	313
4	2573	157.9000792801	314
4	2608	159.988334312206	315
4	2608	159.988334312206	316
4	2608	159.988334312206	317
4	2637	161.788836277429	318
4	2637	161.788836277429	319
4	2637	161.788836277429	320
4	2659	163.337038093516	321
4	2659	163.337038093516	322
4	2659	163.337038093516	323
4	2687	164.8586354507	324
4	2687	164.8586354507	325
4	2687	164.8586354507	326
4	2709	166.18799732065	327
4	2709	166.18799732065	328
4	2709	166.18799732065	329
4	2734	168.125020302265	330
4	2734	168.125020302265	331
4	2734	168.125020302265	332
4	2756	169.639350290721	333
4	2756	169.639350290721	334
4	2756	169.639350290721	335
4	2783	170.874650468504	336
4	2783	170.874650468504	337
4	2783	170.874650468504	338
4	2812	172.071723368483	339
4	2812	172.071723368483	340
4	2812	172.071723368483	341
4	2837	173.545801606305	342
4	2837	173.545801606305	343
4	2837	173.545801606305	344
4	2851	174.74108573288	345
4	2851	174.74108573288	346
4	2851	174.74108573288	347
4	2877	175.900144922919	348
4	2877	175.900144922919	349
4	2877	175.900144922919	350
4	2900	177.356299285539	351
4	2900	177.356299285539	352
4	2900	177.356299285539	353
4	2923	178.667664358215	354
4	2923	178.667664358215	355
4	2923	178.667664358215	356
4	2947	180.42181626751	357
4	2947	180.42181626751	358
4	2947	180.42181626751	359
4	2973	182.234808456501	360
4	2973	182.234808456501	361
4	2973	182.234808456501	362
4	2998	183.361371017293	363
4	2998	183.361371017293	364
4	2998	183.361371017293	365
4	3020	185.348540399168	366
4	3020	185.348540399168	367
4	3020	185.348540399168	368
4	3044	186.436188725053	369
4	3044	186.436188725053	370
4	3044	186.436188725053	371
4	3070	187.997179483038	372
4	3070	187.997179483038	373
4	3070	187.997179483038	374
4	3093	189.815563561133	375
4	3093	189.815563561133	376
4	3093	189.815563561133	377
4	3120	191.559376846515	378
4	3120	191.559376846515	379
4	3120	191.559376846515	380
4	3146	193.250428025006	381
4	3146	193.250428025006	382
4	3146	193.250428025006	383
4	3166	195.13769344968	384
4	3166	195.13769344968	385
4	3166	195.13769344968	386
4	3191	196.214205304198	387
4	3191	196.214205304198	388
4	3191	196.214205304198	389
4	3220	197.445467365169	390
4	3220	197.445467365169	391
4	3220	197.445467365169	392
4	3242	198.846795640065	393
4	3242	198.846795640065	394
4	3242	198.846795640065	395
4	3274	200.540110449854	396
4	3274	200.540110449854	397
4	3274	200.540110449854	398
4	3291	202.179314776349	399
4	3291	202.179314776349	400
4	3291	202.179314776349	401
4	3317	203.231657762884	402
4	3317	203.231657762884	403
4	3317	203.231657762884	404
4	3349	204.435240311733	405
4	3349	204.435240311733	406
4	3349	204.435240311733	407
4	3364	205.785304543596	408
4	3364	205.785304543596	409
4	3364	205.785304543596	410
4	3385	206.911099234846	411
4	3385	206.911099234846	412
4	3385	206.911099234846	413
4	3409	208.062611028596	414
4	3409	208.062611028596	415
4	3409	208.062611028596	416
4	3442	209.426529910323	417
4	3442	209.426529910323	418
4	3442	209.426529910323	419
4	3459	210.633109114932	420
4	3459	210.633109114932	421
4	3459	210.633109114932	422
4	3484	212.116526749088	423
4	3484	212.116526749088	424
4	3484	212.116526749088	425
4	3504	213.354104523889	426
4	3504	213.354104523889	427
4	3504	213.354104523889	428
4	3531	214.725713284877	429
4	3531	214.725713284877	430
4	3531	214.725713284877	431
4	3557	215.8452219702	432
4	3557	215.8452219702	433
4	3557	215.8452219702	434
4	3579	217.274568229492	435
4	3579	217.274568229492	436
4	3579	217.274568229492	437
4	3606	218.464540644861	438
4	3606	218.464540644861	439
4	3606	218.464540644861	440
4	3629	219.620260733049	441
4	3629	219.620260733049	442
4	3629	219.620260733049	443
4	3664	221.098305129996	444
4	3664	221.098305129996	445
4	3664	221.098305129996	446
4	3682	222.693728037076	447
4	3682	222.693728037076	448
4	3682	222.693728037076	449
4	3708	223.774605030256	450
4	3708	223.774605030256	451
4	3708	223.774605030256	452
4	3733	225.649124511697	453
4	3733	225.649124511697	454
4	3733	225.649124511697	455
4	3747	227.410404823098	456
4	3747	227.410404823098	457
4	3747	227.410404823098	458
4	3776	228.682944793476	459
4	3776	228.682944793476	460
4	3776	228.682944793476	461
4	3801	230.38057348796	462
4	3801	230.38057348796	463
4	3801	230.38057348796	464
4	3821	231.70683579246	465
4	3821	231.70683579246	466
4	3821	231.70683579246	467
4	3841	232.918331852529	468
4	3841	232.918331852529	469
4	3841	232.918331852529	470
4	3868	234.644478071877	471
4	3868	234.644478071877	472
4	3868	234.644478071877	473
4	3901	236.127577909752	474
4	3901	236.127577909752	475
4	3901	236.127577909752	476
4	3926	237.262117916259	477
4	3926	237.262117916259	478
4	3926	237.262117916259	479
4	3944	238.326106483166	480
4	3944	238.326106483166	481
4	3944	238.326106483166	482
4	3973	239.584443719499	483
4	3973	239.584443719499	484
4	3973	239.584443719499	485
5	19	0.165693651864	0
5	19	0.165693651864	1
5	45	1.322227663286	2
5	45	1.322227663286	3
5	70	2.841193081297	4
5	70	2.841193081297	5
5	98	4.452539931216	6
5	98	4.452539931216	7
5	123	5.643986521369	8
5	123	5.643986521369	9
5	148	7.417449154887	10
5	148	7.417449154887	11
5	170	8.565047448284	12
5	170	8.565047448284	13
5	191	9.558468658169	14
5	191	9.558468658169	15
5	220	11.536817641987	16
5	220	11.536817641987	17
5	239	13.105344680929	18
5	239	13.105344680929	19
5	276	15.867394598408	20
5	276	15.867394598408	21
5	333	19.860547273214	22
5	333	19.860547273214	23
5	400	25.600112288423	24
5	400	25.600112288423	25
5	419	26.606247243409	26
5	419	26.606247243409	27
5	472	29.796124282377	28
5	472	29.796124282377	29
5	497	30.87749856928	30
5	497	30.87749856928	31
5	541	32.999414587244	32
5	541	32.999414587244	33
5	565	34.127041093983	34
5	565	34.127041093983	35
5	631	38.446483742986	36
5	631	38.446483742986	37
5	660	39.68395645604	38
5	660	39.68395645604	39
5	703	42.635317256752	40
5	703	42.635317256752	41
5	732	44.318565383162	42
5	732	44.318565383162	43
5	760	45.96335900307	44
5	760	45.96335900307	45
5	782	47.574900155052	46
5	782	47.574900155052	47
5	802	48.639093299809	48
5	802	48.639093299809	49
5	857	51.126584563298	50
5	857	51.126584563298	51
5	878	52.166781141733	52
5	878	52.166781141733	53
5	904	53.724276186954	54
5	904	53.724276186954	55
5	928	55.248180613574	56
5	928	55.248180613574	57
5	957	56.958955753613	58
5	957	56.958955753613	59
5	978	57.922561136665	60
5	978	57.922561136665	61
5	1004	59.365261857318	62
5	1004	59.365261857318	63
5	1028	60.632710713137	64
5	1028	60.632710713137	65
5	1075	64.339934828761	66
5	1075	64.339934828761	67
5	1100	65.894701427046	68
5	1100	65.894701427046	69
5	1119	67.86253123713	70
5	1119	67.86253123713	71
5	1150	69.805234267796	72
5	1150	69.805234267796	73
5	1171	70.949620522384	74
5	1171	70.949620522384	75
5	1194	72.408848613548	76
5	1194	72.408848613548	77
5	1225	73.903838188432	78
5	1225	73.903838188432	79
5	1242	75.062362004461	80
5	1242	75.062362004461	81
5	1268	76.17017245847	82
5	1268	76.17017245847	83
5	1300	77.589364153448	84
5	1300	77.589364153448	85
5	1325	78.897699135215	86
5	1325	78.897699135215	87
5	1343	80.62876287914	88
5	1343	80.62876287914	89
5	1371	81.89391611609	90
5	1371	81.89391611609	91
5	1396	82.982387974633	92
5	1396	82.982387974633	93
5	1421	84.543408687191	94
5	1421	84.543408687191	95
5	1458	87.398863040979	96
5	1458	87.398863040979	97
5	1508	90.758670522823	98
5	1508	90.758670522823	99
5	1558	94.031061098538	100
5	1558	94.031061098538	101
5	1577	95.350325923783	102
5	1577	95.350325923783	103
5	1605	96.712089732498	104
5	1605	96.712089732498	105
5	1629	98.230258890092	106
5	1629	98.230258890092	107
5	1658	99.71267980413	108
5	1658	99.71267980413	109
5	1683	101.569989674725	110
5	1683	101.569989674725	111
5	1698	102.840234052725	112
5	1698	102.840234052725	113
5	1727	104.283859813382	114
5	1727	104.283859813382	115
5	1752	105.609784451371	116
5	1752	105.609784451371	117
5	1783	106.637388986137	118
5	1783	106.637388986137	119
5	1805	108.489616277394	120
5	1805	108.489616277394	121
5	1830	109.463136891414	122
5	1830	109.463136891414	123
5	1855	111.45244149269	124
5	1855	111.45244149269	125
5	1880	112.615551031216	126
5	1880	112.615551031216	127
5	1970	119.582272147725	128
5	1970	119.582272147725	129
5	1995	121.083664147432	130
5	1995	121.083664147432	131
5	2042	124.422820626338	132
5	2042	124.422820626338	133
5	2062	126.334122291444	134
5	2062	126.334122291444	135
5	2140	131.073614556783	136
5	2140	131.073614556783	137
5	2162	132.064795380265	138
5	2162	132.064795380265	139
5	2190	133.77224734328	140
5	2190	133.77224734328	141
5	2208	135.047745145472	142
5	2208	135.047745145472	143
5	2240	136.848351515446	144
5	2240	136.848351515446	145
5	2287	140.778976467418	146
5	2287	140.778976467418	147
5	2312	142.168851097531	148
5	2312	142.168851097531	149
5	2334	144.13024718088	150
5	2334	144.13024718088	151
5	2353	145.75177430051	152
5	2353	145.75177430051	153
5	2384	146.816449311289	154
5	2384	146.816449311289	155
5	2401	147.818876977306	156
5	2401	147.818876977306	157
5	2437	148.903499744231	158
5	2437	148.903499744231	159
5	2456	150.229984310494	160
5	2456	150.229984310494	161
5	2487	151.306734673887	162
5	2487	151.306734673887	163
5	2531	154.871066295639	164
5	2531	154.871066295639	165
5	2559	156.774080475795	166
5	2559	156.774080475795	167
5	2580	157.911648864424	168
5	2580	157.911648864424	169
5	2612	160.001412242191	170
5	2612	160.001412242191	171
5	2645	161.7997308981	172
5	2645	161.7997308981	173
5	2692	164.87317688568	174
5	2692	164.87317688568	175
5	2717	166.208360533653	176
5	2717	166.208360533653	177
5	2742	168.13528930514	178
5	2742	168.13528930514	179
5	2767	169.663860780614	180
5	2767	169.663860780614	181
5	2788	170.885152885035	182
5	2788	170.885152885035	183
5	2817	172.092690413755	184
5	2817	172.092690413755	185
5	2841	173.565969957711	186
5	2841	173.565969957711	187
5	2855	174.75188049741	188
5	2855	174.75188049741	189
5	2887	175.910379253087	190
5	2887	175.910379253087	191
5	2934	178.690394343668	192
5	2934	178.690394343668	193
5	2955	180.443132923337	194
5	2955	180.443132923337	195
5	2984	182.263539447175	196
5	2984	182.263539447175	197
5	3027	185.363975184169	198
5	3027	185.363975184169	199
5	3049	186.446615412953	200
5	3049	186.446615412953	201
5	3081	188.020105589509	202
5	3081	188.020105589509	203
5	3102	189.832758060275	204
5	3102	189.832758060275	205
5	3153	193.261319921199	206
5	3153	193.261319921199	207
5	3171	195.159364763827	208
5	3171	195.159364763827	209
5	3196	196.225037913033	210
5	3196	196.225037913033	211
5	3225	197.45601775476	212
5	3225	197.45601775476	213
5	3253	198.869059451277	214
5	3253	198.869059451277	215
5	3278	200.559821934848	216
5	3278	200.559821934848	217
5	3300	202.194555832495	218
5	3300	202.194555832495	219
5	3324	203.245319849222	220
5	3324	203.245319849222	221
5	3353	204.473319834232	222
5	3353	204.473319834232	223
5	3370	205.796586662836	224
5	3370	205.796586662836	225
5	3393	206.927127210139	226
5	3393	206.927127210139	227
5	3414	208.077708331425	228
5	3414	208.077708331425	229
5	3449	209.446380297421	230
5	3449	209.446380297421	231
5	3514	213.37002929324	232
5	3514	213.37002929324	233
5	3540	214.74393075225	234
5	3540	214.74393075225	235
5	3564	215.858837118672	236
5	3564	215.858837118672	237
5	3587	217.286849385764	238
5	3587	217.286849385764	239
5	3611	218.480886229983	240
5	3611	218.480886229983	241
5	3640	219.647994080758	242
5	3640	219.647994080758	243
5	3687	222.705904853442	244
5	3687	222.705904853442	245
5	3715	223.785401923094	246
5	3715	223.785401923094	247
5	3755	227.451503752291	248
5	3755	227.451503752291	249
5	3781	228.694490536574	250
5	3781	228.694490536574	251
5	3808	230.405210299259	252
5	3808	230.405210299259	253
5	3848	232.929367650438	254
5	3848	232.929367650438	255
5	3873	234.657238859187	256
5	3873	234.657238859187	257
5	3905	236.144501113659	258
5	3905	236.144501113659	259
5	3930	237.277161547056	260
5	3930	237.277161547056	261
5	3952	238.337468925642	262
5	3952	238.337468925642	263
5	3980	239.608189425158	264
5	3980	239.608189425158	265
6	20	0.172295634789	0
6	20	0.172295634789	1
6	20	0.172295634789	2
6	41	1.315865867571	3
6	41	1.315865867571	4
6	41	1.315865867571	5
6	69	2.834911031727	6
6	69	2.834911031727	7
6	69	2.834911031727	8
6	88	4.40477281872	9
6	88	4.40477281872	10
6	88	4.40477281872	11
6	112	5.564203616932	12
6	112	5.564203616932	13
6	112	5.564203616932	14
6	140	7.388532663624	15
6	140	7.388532663624	16
6	140	7.388532663624	17
6	169	8.559212197887	18
6	169	8.559212197887	19
6	169	8.559212197887	20
6	195	9.563401011852	21
6	195	9.563401011852	22
6	195	9.563401011852	23
6	219	11.536361847166	24
6	219	11.536361847166	25
6	219	11.536361847166	26
6	238	13.10153222547	27
6	238	13.10153222547	28
6	238	13.10153222547	29
6	265	15.849767295778	30
6	265	15.849767295778	31
6	265	15.849767295778	32
6	293	17.47318665046	33
6	293	17.47318665046	34
6	293	17.47318665046	35
6	322	19.83652882102	36
6	322	19.83652882102	37
6	322	19.83652882102	38
6	367	24.060573225639	39
6	367	24.060573225639	40
6	367	24.060573225639	41
6	396	25.575952484995	42
6	396	25.575952484995	43
6	396	25.575952484995	44
6	420	26.60942372429	45
6	420	26.60942372429	46
6	420	26.60942372429	47
6	438	28.543958457388	48
6	438	28.543958457388	49
6	438	28.543958457388	50
6	464	29.781810736596	51
6	464	29.781810736596	52
6	464	29.781810736596	53
6	490	30.865787445684	54
6	490	30.865787445684	55
6	490	30.865787445684	56
6	518	31.902395437739	57
6	518	31.902395437739	58
6	518	31.902395437739	59
6	537	32.997776573532	60
6	537	32.997776573532	61
6	537	32.997776573532	62
6	566	34.131939891705	63
6	566	34.131939891705	64
6	566	34.131939891705	65
6	587	35.932190202166	66
6	587	35.932190202166	67
6	587	35.932190202166	68
6	606	36.988150466848	69
6	606	36.988150466848	70
6	606	36.988150466848	71
6	630	38.445850911698	72
6	630	38.445850911698	73
6	630	38.445850911698	74
6	659	39.676728644402	75
6	659	39.676728644402	76
6	659	39.676728644402	77
6	678	41.132827040476	78
6	678	41.132827040476	79
6	678	41.132827040476	80
6	709	42.657948695032	81
6	709	42.657948695032	82
6	709	42.657948695032	83
6	728	44.318070484864	84
6	728	44.318070484864	85
6	728	44.318070484864	86
6	756	45.948273046217	87
6	756	45.948273046217	88
6	756	45.948273046217	89
6	781	47.570872093756	90
6	781	47.570872093756	91
6	781	47.570872093756	92
6	803	48.642189099575	93
6	803	48.642189099575	94
6	803	48.642189099575	95
6	831	49.883044883178	96
6	831	49.883044883178	97
6	831	49.883044883178	98
6	849	51.109050813864	99
6	849	51.109050813864	100
6	849	51.109050813864	101
6	879	52.175931674404	102
6	879	52.175931674404	103
6	879	52.175931674404	104
6	898	53.723443271444	105
6	898	53.723443271444	106
6	898	53.723443271444	107
6	929	55.25814562385	108
6	929	55.25814562385	109
6	929	55.25814562385	110
6	949	56.892272026371	111
6	949	56.892272026371	112
6	949	56.892272026371	113
6	979	57.923725613822	114
6	979	57.923725613822	115
6	979	57.923725613822	116
6	1000	59.356010312217	117
6	1000	59.356010312217	118
6	1000	59.356010312217	119
6	1045	62.614973281266	120
6	1045	62.614973281266	121
6	1045	62.614973281266	122
6	1067	64.313366408438	123
6	1067	64.313366408438	124
6	1067	64.313366408438	125
6	1092	65.88019007335	126
6	1092	65.88019007335	127
6	1092	65.88019007335	128
6	1124	67.880688995207	129
6	1124	67.880688995207	130
6	1124	67.880688995207	131
6	1143	69.791479256234	132
6	1143	69.791479256234	133
6	1143	69.791479256234	134
6	1174	70.971909278075	135
6	1174	70.971909278075	136
6	1174	70.971909278075	137
6	1199	72.420254146896	138
6	1199	72.420254146896	139
6	1199	72.420254146896	140
6	1218	73.885799364726	141
6	1218	73.885799364726	142
6	1218	73.885799364726	143
6	1245	75.074319493792	144
6	1245	75.074319493792	145
6	1245	75.074319493792	146
6	1274	76.185525092059	147
6	1274	76.185525092059	148
6	1274	76.185525092059	149
6	1296	77.572958418432	150
6	1296	77.572958418432	151
6	1296	77.572958418432	152
6	1317	78.870090194829	153
6	1317	78.870090194829	154
6	1317	78.870090194829	155
6	1344	80.633724544818	156
6	1344	80.633724544818	157
6	1344	80.633724544818	158
6	1374	81.907263224631	159
6	1374	81.907263224631	160
6	1374	81.907263224631	161
6	1409	84.490005492335	162
6	1409	84.490005492335	163
6	1409	84.490005492335	164
6	1442	85.484856755958	165
6	1442	85.484856755958	166
6	1442	85.484856755958	167
6	1481	89.000907635693	168
6	1481	89.000907635693	169
6	1481	89.000907635693	170
6	1507	90.756663228617	171
6	1507	90.756663228617	172
6	1507	90.756663228617	173
6	1529	92.519236604556	174
6	1529	92.519236604556	175
6	1529	92.519236604556	176
6	1550	94.009206600358	177
6	1550	94.009206600358	178
6	1550	94.009206600358	179
6	1573	95.342845458968	180
6	1573	95.342845458968	181
6	1573	95.342845458968	182
6	1604	96.710395648943	183
6	1604	96.710395648943	184
6	1604	96.710395648943	185
6	1630	98.235521565098	186
6	1630	98.235521565098	187
6	1630	98.235521565098	188
6	1650	99.63895029966	189
6	1650	99.63895029966	190
6	1650	99.63895029966	191
6	1679	101.533161925745	192
6	1679	101.533161925745	193
6	1679	101.533161925745	194
6	1702	102.842165585203	195
6	1702	102.842165585203	196
6	1702	102.842165585203	197
6	1726	104.283300899189	198
6	1726	104.283300899189	199
6	1726	104.283300899189	200
6	1751	105.606516614466	201
6	1751	105.606516614466	202
6	1751	105.606516614466	203
6	1771	106.609494434347	204
6	1771	106.609494434347	205
6	1771	106.609494434347	206
6	1804	108.487434336548	207
6	1804	108.487434336548	208
6	1804	108.487434336548	209
6	1825	109.449426065564	210
6	1825	109.449426065564	211
6	1825	109.449426065564	212
6	1851	111.448494275618	213
6	1851	111.448494275618	214
6	1851	111.448494275618	215
6	1879	112.606322613241	216
6	1879	112.606322613241	217
6	1879	112.606322613241	218
6	1904	114.086279226713	219
6	1904	114.086279226713	220
6	1904	114.086279226713	221
6	1923	115.968742766374	222
6	1923	115.968742766374	223
6	1923	115.968742766374	224
6	1943	117.983531902453	225
6	1943	117.983531902453	226
6	1943	117.983531902453	227
6	1971	119.586351784199	228
6	1971	119.586351784199	229
6	1971	119.586351784199	230
6	1996	121.083767678018	231
6	1996	121.083767678018	232
6	1996	121.083767678018	233
6	2020	122.846298999036	234
6	2020	122.846298999036	235
6	2020	122.846298999036	236
6	2043	124.425514755344	237
6	2043	124.425514755344	238
6	2043	124.425514755344	239
6	2061	126.332688902789	240
6	2061	126.332688902789	241
6	2061	126.332688902789	242
6	2084	128.028192385954	243
6	2084	128.028192385954	244
6	2084	128.028192385954	245
6	2114	129.374777832332	246
6	2114	129.374777832332	247
6	2114	129.374777832332	248
6	2129	131.036001274704	249
6	2129	131.036001274704	250
6	2129	131.036001274704	251
6	2161	132.0564119014	252
6	2161	132.0564119014	253
6	2161	132.0564119014	254
6	2179	133.747025825819	255
6	2179	133.747025825819	256
6	2179	133.747025825819	257
6	2207	135.044678015402	258
6	2207	135.044678015402	259
6	2207	135.044678015402	260
6	2228	136.782434728462	261
6	2228	136.782434728462	262
6	2228	136.782434728462	263
6	2258	138.764687478517	264
6	2258	138.764687478517	265
6	2258	138.764687478517	266
6	2279	140.740201207178	267
6	2279	140.740201207178	268
6	2279	140.740201207178	269
6	2304	142.146966768126	270
6	2304	142.146966768126	271
6	2304	142.146966768126	272
6	2333	144.12683368323	273
6	2333	144.12683368323	274
6	2333	144.12683368323	275
6	2354	145.758627827328	276
6	2354	145.758627827328	277
6	2354	145.758627827328	278
6	2383	146.808736140939	279
6	2383	146.808736140939	280
6	2383	146.808736140939	281
6	2405	147.832217121951	282
6	2405	147.832217121951	283
6	2405	147.832217121951	284
6	2429	148.889507710691	285
6	2429	148.889507710691	286
6	2429	148.889507710691	287
6	2452	150.222530745092	288
6	2452	150.222530745092	289
6	2452	150.222530745092	290
6	2480	151.29457250712	291
6	2480	151.29457250712	292
6	2480	151.29457250712	293
6	2501	152.94374419173	294
6	2501	152.94374419173	295
6	2501	152.94374419173	296
6	2530	154.864395555916	297
6	2530	154.864395555916	298
6	2530	154.864395555916	299
6	2548	156.724526316957	300
6	2548	156.724526316957	301
6	2548	156.724526316957	302
6	2583	157.932296779485	303
6	2583	157.932296779485	304
6	2583	157.932296779485	305
6	2597	158.942740831339	306
6	2597	158.942740831339	307
6	2597	158.942740831339	308
6	2620	160.0170650762	309
6	2620	160.0170650762	310
6	2620	160.0170650762	311
6	2641	161.795424186302	312
6	2641	161.795424186302	313
6	2641	161.795424186302	314
6	2669	163.383141760822	315
6	2669	163.383141760822	316
6	2669	163.383141760822	317
6	2688	164.866191794885	318
6	2688	164.866191794885	319
6	2688	164.866191794885	320
6	2716	166.206386507244	321
6	2716	166.206386507244	322
6	2716	166.206386507244	323
6	2738	168.130782184556	324
6	2738	168.130782184556	325
6	2738	168.130782184556	326
6	2766	169.658159277679	327
6	2766	169.658159277679	328
6	2766	169.658159277679	329
6	2789	170.893038941149	330
6	2789	170.893038941149	331
6	2789	170.893038941149	332
6	2816	172.087365493519	333
6	2816	172.087365493519	334
6	2816	172.087365493519	335
6	2856	174.753618379102	336
6	2856	174.753618379102	337
6	2856	174.753618379102	338
6	2908	177.401764036624	339
6	2908	177.401764036624	340
6	2908	177.401764036624	341
6	2924	178.67231491988	342
6	2924	178.67231491988	343
6	2924	178.67231491988	344
6	2956	180.443145879646	345
6	2956	180.443145879646	346
6	2956	180.443145879646	347
6	2980	182.251682461156	348
6	2980	182.251682461156	349
6	2980	182.251682461156	350
6	3005	183.403449958532	351
6	3005	183.403449958532	352
6	3005	183.403449958532	353
6	3028	185.364627296832	354
6	3028	185.364627296832	355
6	3028	185.364627296832	356
6	3055	186.462276829512	357
6	3055	186.462276829512	358
6	3055	186.462276829512	359
6	3077	188.009968087635	360
6	3077	188.009968087635	361
6	3077	188.009968087635	362
6	3103	189.835876364288	363
6	3103	189.835876364288	364
6	3103	189.835876364288	365
6	3127	191.574214964859	366
6	3127	191.574214964859	367
6	3127	191.574214964859	368
6	3145	193.250376143263	369
6	3145	193.250376143263	370
6	3145	193.250376143263	371
6	3172	195.164037202865	372
6	3172	195.164037202865	373
6	3172	195.164037202865	374
6	3202	196.242142055287	375
6	3202	196.242142055287	376
6	3202	196.242142055287	377
6	3224	197.455667724656	378
6	3224	197.455667724656	379
6	3224	197.455667724656	380
6	3246	198.854288162584	381
6	3246	198.854288162584	382
6	3246	198.854288162584	383
6	3267	200.525904821151	384
6	3267	200.525904821151	385
6	3267	200.525904821151	386
6	3299	202.194397244647	387
6	3299	202.194397244647	388
6	3299	202.194397244647	389
6	3325	203.245629129742	390
6	3325	203.245629129742	391
6	3325	203.245629129742	392
6	3341	204.412656381071	393
6	3341	204.412656381071	394
6	3341	204.412656381071	395
6	3396	206.937081176698	396
6	3396	206.937081176698	397
6	3396	206.937081176698	398
6	3415	208.078384226212	399
6	3415	208.078384226212	400
6	3415	208.078384226212	401
6	3441	209.425777668023	402
6	3441	209.425777668023	403
6	3441	209.425777668023	404
6	3470	210.665709234825	405
6	3470	210.665709234825	406
6	3470	210.665709234825	407
6	3489	212.130146464651	408
6	3489	212.130146464651	409
6	3489	212.130146464651	410
6	3517	213.386749363854	411
6	3517	213.386749363854	412
6	3517	213.386749363854	413
6	3539	214.743096862365	414
6	3539	214.743096862365	415
6	3539	214.743096862365	416
6	3565	215.860158859992	417
6	3565	215.860158859992	418
6	3565	215.860158859992	419
6	3586	217.284876519378	420
6	3586	217.284876519378	421
6	3586	217.284876519378	422
6	3610	218.477748912005	423
6	3610	218.477748912005	424
6	3610	218.477748912005	425
6	3637	219.639383756851	426
6	3637	219.639383756851	427
6	3637	219.639383756851	428
6	3660	221.057557416407	429
6	3660	221.057557416407	430
6	3660	221.057557416407	431
6	3678	222.67911160635	432
6	3678	222.67911160635	433
6	3678	222.67911160635	434
6	3704	223.769490529991	435
6	3704	223.769490529991	436
6	3704	223.769490529991	437
6	3732	225.641482639189	438
6	3732	225.641482639189	439
6	3732	225.641482639189	440
6	3761	227.470996711646	441
6	3761	227.470996711646	442
6	3761	227.470996711646	443
6	3777	228.692523110412	444
6	3777	228.692523110412	445
6	3777	228.692523110412	446
6	3829	231.725108133461	447
6	3829	231.725108133461	448
6	3829	231.725108133461	449
6	3852	232.937324677431	450
6	3852	232.937324677431	451
6	3852	232.937324677431	452
6	3879	234.679130778463	453
6	3879	234.679130778463	454
6	3879	234.679130778463	455
6	3893	236.113367231364	456
6	3893	236.113367231364	457
6	3893	236.113367231364	458
6	3922	237.248436893253	459
6	3922	237.248436893253	460
6	3922	237.248436893253	461
6	3948	238.329468792615	462
6	3948	238.329468792615	463
6	3948	238.329468792615	464
6	3972	239.579809691225	465
6	3972	239.579809691225	466
6	3972	239.579809691225	467
7	22	0.175693651864	0
7	25	0.182295634789	1
7	50	1.332227663286	2
7	73	2.844911031727	3
7	93	4.41477281872	4
7	100	4.462539931216	5
7	118	5.574203616932	6
7	125	5.653986521369	7
7	150	7.427449154887	8
7	173	8.569212197887	9
7	175	8.575047448284	10
7	197	9.568468658169	11
7	200	9.573401011852	12
7	223	11.546361847166	13
7	225	11.546817641987	14
7	272	15.859767295778	15
7	297	17.48318665046	16
7	329	19.84652882102	17
7	335	19.870547273214	18
7	374	24.070573225639	19
7	399	25.585952484995	20
7	402	25.610112288423	21
7	442	28.553958457388	22
7	468	29.791810736596	23
7	474	29.806124282377	24
7	496	30.875787445684	25
7	499	30.88749856928	26
7	521	31.912395437739	27
7	546	33.009414587244	28
7	568	34.137041093983	29
7	611	36.998150466848	30
7	635	38.455850911698	31
7	663	39.686728644402	32
7	665	39.69395645604	33
7	735	44.328070484864	34
7	737	44.328565383162	35
7	759	45.958273046217	36
7	785	47.580872093756	37
7	787	47.584900155052	38
7	806	48.649093299809	39
7	809	48.652189099575	40
7	834	49.893044883178	41
7	853	51.119050813864	42
7	859	51.136584563298	43
7	884	52.185931674404	44
7	907	53.733443271444	45
7	931	55.258180613574	46
7	952	56.902272026371	47
7	981	57.932561136665	48
7	984	57.933725613822	49
7	1007	59.366010312217	50
7	1009	59.375261857318	51
7	1030	60.642710713137	52
7	1048	62.624973281266	53
7	1096	65.89019007335	54
7	1102	65.904701427046	55
7	1123	67.87253123713	56
7	1127	67.890688995207	57
7	1152	69.815234267796	58
7	1173	70.959620522384	59
7	1177	70.981909278075	60
7	1198	72.418848613548	61
7	1224	73.895799364726	62
7	1227	73.913838188432	63
7	1249	75.084319493792	64
7	1273	76.18017245847	65
7	1299	77.582958418432	66
7	1302	77.599364153448	67
7	1320	78.880090194829	68
7	1327	78.907699135215	69
7	1349	80.63876287914	70
7	1352	80.643724544818	71
7	1373	81.90391611609	72
7	1377	81.917263224631	73
7	1463	87.408863040979	74
7	1484	89.010907635693	75
7	1513	90.768670522823	76
7	1535	92.529236604556	77
7	1554	94.019206600358	78
7	1560	94.041061098538	79
7	1581	95.352845458968	80
7	1583	95.360325923783	81
7	1608	96.720395648943	82
7	1635	98.245521565098	83
7	1653	99.64895029966	84
7	1682	101.543161925745	85
7	1705	102.850234052725	86
7	1708	102.852165585203	87
7	1733	104.293300899189	88
7	1758	105.616516614466	89
7	1760	105.619784451371	90
7	1775	106.619494434347	91
7	1808	108.497434336548	92
7	1810	108.499616277394	93
7	1829	109.459426065564	94
7	1835	109.473136891414	95
7	1858	111.458494275618	96
7	1883	112.616322613241	97
7	1907	114.096279226713	98
7	1929	115.978742766374	99
7	1973	119.592272147725	100
7	1976	119.596351784199	101
7	1998	121.093664147432	102
7	2048	124.435514755344	103
7	2069	126.342688902789	104
7	2071	126.344122291444	105
7	2088	128.038192385954	106
7	2117	129.384777832332	107
7	2135	131.046001274704	108
7	2142	131.083614556783	109
7	2186	133.757025825819	110
7	2214	135.057745145472	111
7	2242	136.858351515446	112
7	2264	138.774687478517	113
7	2282	140.750201207178	114
7	2289	140.788976467418	115
7	2307	142.156966768126	116
7	2337	144.13683368323	117
7	2361	145.76177430051	118
7	2364	145.768627827328	119
7	2389	146.826449311289	120
7	2410	147.842217121951	121
7	2433	148.899507710691	122
7	2439	148.913499744231	123
7	2459	150.232530745092	124
7	2486	151.30457250712	125
7	2489	151.316734673887	126
7	2508	152.95374419173	127
7	2536	154.881066295639	128
7	2552	156.734526316957	129
7	2561	156.784080475795	130
7	2582	157.921648864424	131
7	2586	157.942296779485	132
7	2600	158.952740831339	133
7	2616	160.011412242191	134
7	2650	161.8097308981	135
7	2672	163.393141760822	136
7	2720	166.216386507244	137
7	2722	166.218360533653	138
7	2745	168.140782184556	139
7	2747	168.14528930514	140
7	2772	169.673860780614	141
7	2794	170.895152885035	142
7	2820	172.097365493519	143
7	2822	172.102690413755	144
7	2843	173.575969957711	145
7	2858	174.76188049741	146
7	2861	174.763618379102	147
7	2889	175.920379253087	148
7	2936	178.700394343668	149
7	2958	180.453132923337	150
7	2961	180.453145879646	151
7	2983	182.261682461156	152
7	2986	182.273539447175	153
7	3008	183.413449958532	154
7	3033	185.374627296832	155
7	3054	186.456615412953	156
7	3080	188.019968087635	157
7	3083	188.030105589509	158
7	3105	189.842758060275	159
7	3108	189.845876364288	160
7	3149	193.260376143263	161
7	3180	195.174037202865	162
7	3205	196.252142055287	163
7	3228	197.465667724656	164
7	3230	197.46601775476	165
7	3252	198.864288162584	166
7	3280	200.569821934848	167
7	3303	202.204397244647	168
7	3327	203.255319849222	169
7	3345	204.422656381071	170
7	3398	206.937127210139	171
7	3401	206.947081176698	172
7	3421	208.087708331425	173
7	3424	208.088384226212	174
7	3451	209.456380297421	175
7	3516	213.38002929324	176
7	3520	213.396749363854	177
7	3545	214.75393075225	178
7	3567	215.868837118672	179
7	3591	217.294876519378	180
7	3617	218.490886229983	181
7	3645	219.657994080758	182
7	3663	221.067557416407	183
7	3681	222.68911160635	184
7	3692	222.715904853442	185
7	3717	223.795401923094	186
7	3736	225.651482639189	187
7	3758	227.461503752291	188
7	3785	228.702523110412	189
7	3810	230.415210299259	190
7	3832	231.735108133461	191
7	3878	234.667238859187	192
7	3882	234.689130778463	193
7	3897	236.123367231364	194
7	3925	237.258436893253	195
7	3955	238.339468792615	196
7	3976	239.589809691225	197

