version 2
run General-1-20230921-22:34:23-7056
attr configname General
attr datetime 20230921-22:34:23
attr experiment General
attr inifile omnetpp.ini
attr iterationvars ""
attr iterationvarsf ""
attr measurement ""
attr network Network3
attr processid 7056
attr repetition 1
attr replication #1
attr resultdir results
attr runnumber 1
attr seedset 1
param Network3.node[*].transmissionTime "uniform(1s, 2s)"
param Network3.node[*].delayTime "uniform(0.01s, 0.2s)"
param Network3.node[*].processingTime exponential(0.01s)
param Network3.node[0].lossProbability 0
param Network3.node[1].lossProbability 0.1
param Network3.node[2].lossProbability 0.1
param Network3.node[3].lossProbability "0.1 / 2"
param Network3.node[4].lossProbability "0.1 / 2"
param Network3.node[6].lossProbability "0.1 * 2"
param Network3.node[7].lossProbability "0.1 * 2"
param Network3.node[5].lossProbability "0.1 * 3"

vector 0 Network3.node[0] txVector ETV
vector 1 Network3.node[1] txVector ETV
vector 2 Network3.node[3] txVector ETV
vector 3 Network3.node[6] txVector ETV
vector 4 Network3.node[7] txVector ETV
vector 5 Network3.node[5] rxVector ETV
vector 6 Network3.node[4] txVector ETV
vector 7 Network3.node[2] txVector ETV
0	1	0.089234179703	0
0	1	0.089234179703	1
0	26	2.086418987836	2
0	26	2.086418987836	3
0	51	3.964536424845	4
0	51	3.964536424845	5
0	73	5.793683335537	6
0	73	5.793683335537	7
0	95	7.576997808067	8
0	95	7.576997808067	9
0	120	9.480367979387	10
0	120	9.480367979387	11
0	134	10.582702409828	12
0	134	10.582702409828	13
0	156	12.097591517379	14
0	156	12.097591517379	15
0	181	13.848403619954	16
0	181	13.848403619954	17
0	202	15.635355093868	18
0	202	15.635355093868	19
0	223	17.162413199784	20
0	223	17.162413199784	21
0	248	18.905178026881	22
0	248	18.905178026881	23
0	273	20.765205977371	24
0	273	20.765205977371	25
0	295	22.378154067675	26
0	295	22.378154067675	27
0	317	23.414153503374	28
0	317	23.414153503374	29
0	342	24.464171587842	30
0	342	24.464171587842	31
0	367	26.452787743768	32
0	367	26.452787743768	33
0	392	27.809251425674	34
0	392	27.809251425674	35
0	417	28.823202996168	36
0	417	28.823202996168	37
0	442	30.631541740268	38
0	442	30.631541740268	39
0	464	31.963605312982	40
0	464	31.963605312982	41
0	489	33.762208901232	42
0	489	33.762208901232	43
0	514	35.351048837302	44
0	514	35.351048837302	45
0	539	36.979125039538	46
0	539	36.979125039538	47
0	564	38.002293769855	48
0	564	38.002293769855	49
0	589	39.66501358466	50
0	589	39.66501358466	51
0	614	41.301304198222	52
0	614	41.301304198222	53
0	639	42.526344151821	54
0	639	42.526344151821	55
0	664	43.581803473298	56
0	664	43.581803473298	57
0	689	44.803852612738	58
0	689	44.803852612738	59
0	714	45.851170841724	60
0	714	45.851170841724	61
0	739	47.297317071705	62
0	739	47.297317071705	63
0	764	48.755467950021	64
0	764	48.755467950021	65
0	789	50.745219658482	66
0	789	50.745219658482	67
0	814	51.833835917645	68
0	814	51.833835917645	69
0	839	53.10090793332	70
0	839	53.10090793332	71
0	853	54.112188250645	72
0	853	54.112188250645	73
0	878	56.070888154562	74
0	878	56.070888154562	75
0	900	57.196529531273	76
0	900	57.196529531273	77
0	925	58.38416120096	78
0	925	58.38416120096	79
0	950	60.231951181431	80
0	950	60.231951181431	81
0	975	61.262900185425	82
0	975	61.262900185425	83
0	1000	63.157596794076	84
0	1000	63.157596794076	85
0	1018	64.245079006187	86
0	1018	64.245079006187	87
0	1043	65.485434624718	88
0	1043	65.485434624718	89
0	1068	66.641427121011	90
0	1068	66.641427121011	91
0	1090	68.465664962425	92
0	1090	68.465664962425	93
0	1115	69.47655369749	94
0	1115	69.47655369749	95
0	1140	71.347631473212	96
0	1140	71.347631473212	97
0	1165	72.832059917158	98
0	1165	72.832059917158	99
0	1187	74.081929580659	100
0	1187	74.081929580659	101
0	1209	75.264523869265	102
0	1209	75.264523869265	103
0	1231	76.866328229314	104
0	1231	76.866328229314	105
0	1256	78.639162661625	106
0	1256	78.639162661625	107
0	1277	80.277381371591	108
0	1277	80.277381371591	109
0	1302	81.359707468539	110
0	1302	81.359707468539	111
0	1327	82.467772794771	112
0	1327	82.467772794771	113
0	1352	83.917088391376	114
0	1352	83.917088391376	115
0	1377	85.195173437358	116
0	1377	85.195173437358	117
0	1402	86.470757324831	118
0	1402	86.470757324831	119
0	1427	87.760901785572	120
0	1427	87.760901785572	121
0	1452	89.467269339948	122
0	1452	89.467269339948	123
0	1477	91.310169177945	124
0	1477	91.310169177945	125
0	1502	92.490285639535	126
0	1502	92.490285639535	127
0	1527	93.62462424452	128
0	1527	93.62462424452	129
0	1549	95.186456149328	130
0	1549	95.186456149328	131
0	1574	96.838001280209	132
0	1574	96.838001280209	133
0	1599	98.457588021062	134
0	1599	98.457588021062	135
0	1624	99.786369140144	136
0	1624	99.786369140144	137
0	1646	101.724851031206	138
0	1646	101.724851031206	139
0	1671	102.952148572426	140
0	1671	102.952148572426	141
0	1696	104.727500535898	142
0	1696	104.727500535898	143
0	1718	106.237113833545	144
0	1718	106.237113833545	145
0	1743	107.876240683604	146
0	1743	107.876240683604	147
0	1765	109.825077566901	148
0	1765	109.825077566901	149
0	1790	111.782505252981	150
0	1790	111.782505252981	151
0	1815	113.146883322508	152
0	1815	113.146883322508	153
0	1840	114.912886406644	154
0	1840	114.912886406644	155
0	1862	116.063670809497	156
0	1862	116.063670809497	157
0	1884	117.481806942145	158
0	1884	117.481806942145	159
0	1906	118.881025551469	160
0	1906	118.881025551469	161
0	1931	120.033629538608	162
0	1931	120.033629538608	163
0	1953	121.769685998443	164
0	1953	121.769685998443	165
0	1978	123.510164067964	166
0	1978	123.510164067964	167
0	2003	125.461299687507	168
0	2003	125.461299687507	169
0	2028	126.542646588408	170
0	2028	126.542646588408	171
0	2053	127.582506509381	172
0	2053	127.582506509381	173
0	2078	128.856242935755	174
0	2078	128.856242935755	175
0	2103	130.697665091953	176
0	2103	130.697665091953	177
0	2128	132.357424533809	178
0	2128	132.357424533809	179
0	2153	133.975770399323	180
0	2153	133.975770399323	181
0	2178	135.372491959598	182
0	2178	135.372491959598	183
0	2203	137.217364475945	184
0	2203	137.217364475945	185
0	2225	138.878293497603	186
0	2225	138.878293497603	187
0	2250	139.933817042851	188
0	2250	139.933817042851	189
0	2275	141.862766503937	190
0	2275	141.862766503937	191
0	2300	143.317034608799	192
0	2300	143.317034608799	193
0	2325	145.077837069633	194
0	2325	145.077837069633	195
0	2350	147.035673746488	196
0	2350	147.035673746488	197
0	2375	148.760590494492	198
0	2375	148.760590494492	199
0	2400	150.614383419392	200
0	2400	150.614383419392	201
0	2425	152.436232792096	202
0	2425	152.436232792096	203
0	2447	153.8473165374	204
0	2447	153.8473165374	205
0	2469	154.957277249892	206
0	2469	154.957277249892	207
0	2494	156.233700297189	208
0	2494	156.233700297189	209
0	2519	158.060836294781	210
0	2519	158.060836294781	211
0	2544	159.176912513211	212
0	2544	159.176912513211	213
0	2566	160.430801133042	214
0	2566	160.430801133042	215
0	2591	161.439184210611	216
0	2591	161.439184210611	217
0	2616	163.082014928687	218
0	2616	163.082014928687	219
0	2641	164.475898933479	220
0	2641	164.475898933479	221
0	2666	165.871747592812	222
0	2666	165.871747592812	223
0	2688	167.260620992746	224
0	2688	167.260620992746	225
0	2713	168.873733329003	226
0	2713	168.873733329003	227
0	2738	170.584991528069	228
0	2738	170.584991528069	229
0	2763	172.557711880536	230
0	2763	172.557711880536	231
0	2777	174.050073095479	232
0	2777	174.050073095479	233
0	2802	175.74769563379	234
0	2802	175.74769563379	235
0	2824	177.120444436905	236
0	2824	177.120444436905	237
0	2846	178.921104095991	238
0	2846	178.921104095991	239
0	2871	180.214966587604	240
0	2871	180.214966587604	241
0	2896	182.161599419893	242
0	2896	182.161599419893	243
0	2921	183.506715327849	244
0	2921	183.506715327849	245
0	2943	185.149575966758	246
0	2943	185.149575966758	247
0	2968	186.793153168748	248
0	2968	186.793153168748	249
0	2993	188.731181705485	250
0	2993	188.731181705485	251
0	3014	190.453663106424	252
0	3014	190.453663106424	253
0	3036	192.260409923618	254
0	3036	192.260409923618	255
0	3061	194.195563039392	256
0	3061	194.195563039392	257
0	3086	195.597647306392	258
0	3086	195.597647306392	259
0	3108	196.608346308231	260
0	3108	196.608346308231	261
0	3130	198.505844593396	262
0	3130	198.505844593396	263
0	3155	199.68433942471	264
0	3155	199.68433942471	265
0	3180	201.574795971274	266
0	3180	201.574795971274	267
0	3205	202.981084394849	268
0	3205	202.981084394849	269
0	3230	204.147156024932	270
0	3230	204.147156024932	271
0	3255	205.184131090178	272
0	3255	205.184131090178	273
0	3280	207.003723438012	274
0	3280	207.003723438012	275
0	3305	208.557157141271	276
0	3305	208.557157141271	277
0	3330	210.554067467454	278
0	3330	210.554067467454	279
0	3352	212.167617491561	280
0	3352	212.167617491561	281
0	3374	213.557882193358	282
0	3374	213.557882193358	283
0	3399	214.799440603585	284
0	3399	214.799440603585	285
0	3424	216.691828093606	286
0	3424	216.691828093606	287
0	3449	218.491488928555	288
0	3449	218.491488928555	289
0	3474	219.781902113578	290
0	3474	219.781902113578	291
0	3499	221.215591856393	292
0	3499	221.215591856393	293
0	3521	222.777933215138	294
0	3521	222.777933215138	295
0	3546	224.134380103436	296
0	3546	224.134380103436	297
0	3571	225.244356077279	298
0	3571	225.244356077279	299
0	3589	226.816479334024	300
0	3589	226.816479334024	301
0	3614	228.389553492072	302
0	3614	228.389553492072	303
0	3639	229.769317922995	304
0	3639	229.769317922995	305
0	3664	231.134728698407	306
0	3664	231.134728698407	307
0	3689	232.904860882436	308
0	3689	232.904860882436	309
0	3714	233.960844404179	310
0	3714	233.960844404179	311
0	3728	235.108346914522	312
0	3728	235.108346914522	313
0	3753	236.264322147121	314
0	3753	236.264322147121	315
0	3778	237.535695075172	316
0	3778	237.535695075172	317
0	3800	238.735881134982	318
0	3800	238.735881134982	319
0	3825	239.924458736435	320
0	3825	239.924458736435	321
1	4	0.126198958082	0
1	4	0.126198958082	1
1	4	0.126198958082	2
1	29	2.096696684112	3
1	29	2.096696684112	4
1	29	2.096696684112	5
1	62	4.006648150128	6
1	62	4.006648150128	7
1	62	4.006648150128	8
1	76	5.809002787082	9
1	76	5.809002787082	10
1	76	5.809002787082	11
1	98	7.588270353387	12
1	98	7.588270353387	13
1	98	7.588270353387	14
1	123	9.495713289721	15
1	123	9.495713289721	16
1	123	9.495713289721	17
1	137	10.621633220617	18
1	137	10.621633220617	19
1	137	10.621633220617	20
1	159	12.120537715654	21
1	159	12.120537715654	22
1	159	12.120537715654	23
1	184	13.85906573731	24
1	184	13.85906573731	25
1	184	13.85906573731	26
1	212	15.711383537835	27
1	212	15.711383537835	28
1	212	15.711383537835	29
1	226	17.17454458839	30
1	226	17.17454458839	31
1	226	17.17454458839	32
1	251	18.922917935403	33
1	251	18.922917935403	34
1	251	18.922917935403	35
1	276	20.78077309936	36
1	276	20.78077309936	37
1	276	20.78077309936	38
1	298	22.398776594656	39
1	298	22.398776594656	40
1	298	22.398776594656	41
1	321	23.437661059756	42
1	321	23.437661059756	43
1	321	23.437661059756	44
1	346	24.482840529257	45
1	346	24.482840529257	46
1	346	24.482840529257	47
1	370	26.463789348933	48
1	370	26.463789348933	49
1	370	26.463789348933	50
1	395	27.821921884859	51
1	395	27.821921884859	52
1	395	27.821921884859	53
1	420	28.837797619673	54
1	420	28.837797619673	55
1	420	28.837797619673	56
1	445	30.642945825488	57
1	445	30.642945825488	58
1	445	30.642945825488	59
1	467	31.976970099308	60
1	467	31.976970099308	61
1	467	31.976970099308	62
1	492	33.772702240704	63
1	492	33.772702240704	64
1	492	33.772702240704	65
1	517	35.364411627735	66
1	517	35.364411627735	67
1	517	35.364411627735	68
1	543	36.996710820142	69
1	543	36.996710820142	70
1	543	36.996710820142	71
1	567	38.015443730658	72
1	567	38.015443730658	73
1	567	38.015443730658	74
1	599	39.702935719496	75
1	599	39.702935719496	76
1	599	39.702935719496	77
1	618	41.320281632823	78
1	618	41.320281632823	79
1	618	41.320281632823	80
1	642	42.538058913176	81
1	642	42.538058913176	82
1	642	42.538058913176	83
1	675	43.638882980128	84
1	675	43.638882980128	85
1	675	43.638882980128	86
1	692	44.826703167078	87
1	692	44.826703167078	88
1	692	44.826703167078	89
1	717	45.876437880016	90
1	717	45.876437880016	91
1	717	45.876437880016	92
1	742	47.329148044859	93
1	742	47.329148044859	94
1	742	47.329148044859	95
1	767	48.767748332956	96
1	767	48.767748332956	97
1	767	48.767748332956	98
1	792	50.7570311566	99
1	792	50.7570311566	100
1	792	50.7570311566	101
1	817	51.844685767976	102
1	817	51.844685767976	103
1	817	51.844685767976	104
1	842	53.124201543746	105
1	842	53.124201543746	106
1	842	53.124201543746	107
1	864	54.165572416894	108
1	864	54.165572416894	109
1	864	54.165572416894	110
1	882	56.090524954514	111
1	882	56.090524954514	112
1	882	56.090524954514	113
1	903	57.216271269728	114
1	903	57.216271269728	115
1	903	57.216271269728	116
1	929	58.404594600034	117
1	929	58.404594600034	118
1	929	58.404594600034	119
1	953	60.254569978639	120
1	953	60.254569978639	121
1	953	60.254569978639	122
1	978	61.275187816621	123
1	978	61.275187816621	124
1	978	61.275187816621	125
1	1003	63.170175564098	126
1	1003	63.170175564098	127
1	1003	63.170175564098	128
1	1022	64.263617309733	129
1	1022	64.263617309733	130
1	1022	64.263617309733	131
1	1046	65.499061710467	132
1	1046	65.499061710467	133
1	1046	65.499061710467	134
1	1071	66.661440592645	135
1	1071	66.661440592645	136
1	1071	66.661440592645	137
1	1096	68.489864643061	138
1	1096	68.489864643061	139
1	1096	68.489864643061	140
1	1118	69.49094663051	141
1	1118	69.49094663051	142
1	1118	69.49094663051	143
1	1144	71.377243992191	144
1	1144	71.377243992191	145
1	1144	71.377243992191	146
1	1169	72.851624883782	147
1	1169	72.851624883782	148
1	1169	72.851624883782	149
1	1191	74.099723007634	150
1	1191	74.099723007634	151
1	1191	74.099723007634	152
1	1213	75.285164851696	153
1	1213	75.285164851696	154
1	1213	75.285164851696	155
1	1234	76.881556041416	156
1	1234	76.881556041416	157
1	1234	76.881556041416	158
1	1260	78.658254008149	159
1	1260	78.658254008149	160
1	1260	78.658254008149	161
1	1280	80.289612369653	162
1	1280	80.289612369653	163
1	1280	80.289612369653	164
1	1308	81.385198041045	165
1	1308	81.385198041045	166
1	1308	81.385198041045	167
1	1330	82.485704491116	168
1	1330	82.485704491116	169
1	1330	82.485704491116	170
1	1355	83.927126400266	171
1	1355	83.927126400266	172
1	1355	83.927126400266	173
1	1380	85.205811785894	174
1	1380	85.205811785894	175
1	1380	85.205811785894	176
1	1406	86.490273164662	177
1	1406	86.490273164662	178
1	1406	86.490273164662	179
1	1431	87.778898852847	180
1	1431	87.778898852847	181
1	1431	87.778898852847	182
1	1455	89.477971493259	183
1	1455	89.477971493259	184
1	1455	89.477971493259	185
1	1488	91.392009757605	186
1	1488	91.392009757605	187
1	1488	91.392009757605	188
1	1506	92.52657557924	189
1	1506	92.52657557924	190
1	1506	92.52657557924	191
1	1530	93.636064721186	192
1	1530	93.636064721186	193
1	1530	93.636064721186	194
1	1552	95.198007572235	195
1	1552	95.198007572235	196
1	1552	95.198007572235	197
1	1577	96.850905245468	198
1	1577	96.850905245468	199
1	1577	96.850905245468	200
1	1602	98.484225365694	201
1	1602	98.484225365694	202
1	1602	98.484225365694	203
1	1627	99.800570280598	204
1	1627	99.800570280598	205
1	1627	99.800570280598	206
1	1650	101.740378783108	207
1	1650	101.740378783108	208
1	1650	101.740378783108	209
1	1677	103.002461683013	210
1	1677	103.002461683013	211
1	1677	103.002461683013	212
1	1699	104.74102376711	213
1	1699	104.74102376711	214
1	1699	104.74102376711	215
1	1722	106.255453158555	216
1	1722	106.255453158555	217
1	1722	106.255453158555	218
1	1750	107.900179341838	219
1	1750	107.900179341838	220
1	1750	107.900179341838	221
1	1768	109.835747434401	222
1	1768	109.835747434401	223
1	1768	109.835747434401	224
1	1794	111.80739561964	225
1	1794	111.80739561964	226
1	1794	111.80739561964	227
1	1818	113.167414727668	228
1	1818	113.167414727668	229
1	1818	113.167414727668	230
1	1844	114.927497240781	231
1	1844	114.927497240781	232
1	1844	114.927497240781	233
1	1865	116.073931718592	234
1	1865	116.073931718592	235
1	1865	116.073931718592	236
1	1890	117.507750575758	237
1	1890	117.507750575758	238
1	1890	117.507750575758	239
1	1909	118.891192699491	240
1	1909	118.891192699491	241
1	1909	118.891192699491	242
1	1934	120.047194943086	243
1	1934	120.047194943086	244
1	1934	120.047194943086	245
1	1956	121.783512243623	246
1	1956	121.783512243623	247
1	1956	121.783512243623	248
1	1984	123.536904221861	249
1	1984	123.536904221861	250
1	1984	123.536904221861	251
1	2007	125.476778769652	252
1	2007	125.476778769652	253
1	2007	125.476778769652	254
1	2031	126.554094454765	255
1	2031	126.554094454765	256
1	2031	126.554094454765	257
1	2060	127.611364781919	258
1	2060	127.611364781919	259
1	2060	127.611364781919	260
1	2081	128.866685495229	261
1	2081	128.866685495229	262
1	2081	128.866685495229	263
1	2106	130.710670157791	264
1	2106	130.710670157791	265
1	2106	130.710670157791	266
1	2132	132.375002197419	267
1	2132	132.375002197419	268
1	2132	132.375002197419	269
1	2156	133.986365898845	270
1	2156	133.986365898845	271
1	2156	133.986365898845	272
1	2181	135.391709607687	273
1	2181	135.391709607687	274
1	2181	135.391709607687	275
1	2214	137.263828800799	276
1	2214	137.263828800799	277
1	2214	137.263828800799	278
1	2228	138.895757026478	279
1	2228	138.895757026478	280
1	2228	138.895757026478	281
1	2254	139.950891926581	282
1	2254	139.950891926581	283
1	2254	139.950891926581	284
1	2278	141.874146491692	285
1	2278	141.874146491692	286
1	2278	141.874146491692	287
1	2303	143.342223536837	288
1	2303	143.342223536837	289
1	2303	143.342223536837	290
1	2328	145.10621068944	291
1	2328	145.10621068944	292
1	2328	145.10621068944	293
1	2353	147.049684370785	294
1	2353	147.049684370785	295
1	2353	147.049684370785	296
1	2379	148.786502341647	297
1	2379	148.786502341647	298
1	2379	148.786502341647	299
1	2403	150.634278476612	300
1	2403	150.634278476612	301
1	2403	150.634278476612	302
1	2428	152.467756781943	303
1	2428	152.467756781943	304
1	2428	152.467756781943	305
1	2451	153.865785898908	306
1	2451	153.865785898908	307
1	2451	153.865785898908	308
1	2475	154.984896725685	309
1	2475	154.984896725685	310
1	2475	154.984896725685	311
1	2498	156.250548643352	312
1	2498	156.250548643352	313
1	2498	156.250548643352	314
1	2522	158.072787999882	315
1	2522	158.072787999882	316
1	2522	158.072787999882	317
1	2548	159.19586238538	318
1	2548	159.19586238538	319
1	2548	159.19586238538	320
1	2570	160.452144884236	321
1	2570	160.452144884236	322
1	2570	160.452144884236	323
1	2594	161.453661808906	324
1	2594	161.453661808906	325
1	2594	161.453661808906	326
1	2620	163.10369310721	327
1	2620	163.10369310721	328
1	2620	163.10369310721	329
1	2644	164.498202268218	330
1	2644	164.498202268218	331
1	2644	164.498202268218	332
1	2670	165.889469230848	333
1	2670	165.889469230848	334
1	2670	165.889469230848	335
1	2694	167.298068591006	336
1	2694	167.298068591006	337
1	2694	167.298068591006	338
1	2723	168.93197015803	339
1	2723	168.93197015803	340
1	2723	168.93197015803	341
1	2748	170.660152080027	342
1	2748	170.660152080027	343
1	2748	170.660152080027	344
1	2766	172.568402153389	345
1	2766	172.568402153389	346
1	2766	172.568402153389	347
1	2783	174.079517282689	348
1	2783	174.079517282689	349
1	2783	174.079517282689	350
1	2806	175.770086611537	351
1	2806	175.770086611537	352
1	2806	175.770086611537	353
1	2830	177.157505308538	354
1	2830	177.157505308538	355
1	2830	177.157505308538	356
1	2849	178.935504917527	357
1	2849	178.935504917527	358
1	2849	178.935504917527	359
1	2874	180.230063907101	360
1	2874	180.230063907101	361
1	2874	180.230063907101	362
1	2899	182.173341987011	363
1	2899	182.173341987011	364
1	2899	182.173341987011	365
1	2924	183.518051401151	366
1	2924	183.518051401151	367
1	2924	183.518051401151	368
1	2946	185.162833076365	369
1	2946	185.162833076365	370
1	2946	185.162833076365	371
1	2971	186.805203510485	372
1	2971	186.805203510485	373
1	2971	186.805203510485	374
1	3003	188.778951873001	375
1	3003	188.778951873001	376
1	3003	188.778951873001	377
1	3028	190.525768533298	378
1	3028	190.525768533298	379
1	3028	190.525768533298	380
1	3042	192.292351007172	381
1	3042	192.292351007172	382
1	3042	192.292351007172	383
1	3064	194.207864669573	384
1	3064	194.207864669573	385
1	3064	194.207864669573	386
1	3089	195.615795218163	387
1	3089	195.615795218163	388
1	3089	195.615795218163	389
1	3111	196.624394557172	390
1	3111	196.624394557172	391
1	3111	196.624394557172	392
1	3136	198.550867122802	393
1	3136	198.550867122802	394
1	3136	198.550867122802	395
1	3158	199.711024278773	396
1	3158	199.711024278773	397
1	3158	199.711024278773	398
1	3186	201.598411957527	399
1	3186	201.598411957527	400
1	3186	201.598411957527	401
1	3209	203.004629882541	402
1	3209	203.004629882541	403
1	3209	203.004629882541	404
1	3233	204.160890079162	405
1	3233	204.160890079162	406
1	3233	204.160890079162	407
1	3258	205.198436045853	408
1	3258	205.198436045853	409
1	3258	205.198436045853	410
1	3283	207.014609584509	411
1	3283	207.014609584509	412
1	3283	207.014609584509	413
1	3312	208.617470869742	414
1	3312	208.617470869742	415
1	3312	208.617470869742	416
1	3333	210.566481405561	417
1	3333	210.566481405561	418
1	3333	210.566481405561	419
1	3355	212.191881382669	420
1	3355	212.191881382669	421
1	3355	212.191881382669	422
1	3377	213.589007330244	423
1	3377	213.589007330244	424
1	3377	213.589007330244	425
1	3402	214.815184235558	426
1	3402	214.815184235558	427
1	3402	214.815184235558	428
1	3428	216.708807580642	429
1	3428	216.708807580642	430
1	3428	216.708807580642	431
1	3452	218.514933812986	432
1	3452	218.514933812986	433
1	3452	218.514933812986	434
1	3478	219.795395022199	435
1	3478	219.795395022199	436
1	3478	219.795395022199	437
1	3505	221.244162333064	438
1	3505	221.244162333064	439
1	3505	221.244162333064	440
1	3527	222.800382635527	441
1	3527	222.800382635527	442
1	3527	222.800382635527	443
1	3550	224.17230298643	444
1	3550	224.17230298643	445
1	3550	224.17230298643	446
1	3574	225.266559492589	447
1	3574	225.266559492589	448
1	3574	225.266559492589	449
1	3595	226.857833967708	450
1	3595	226.857833967708	451
1	3595	226.857833967708	452
1	3617	228.40223911179	453
1	3617	228.40223911179	454
1	3617	228.40223911179	455
1	3643	229.786986336115	456
1	3643	229.786986336115	457
1	3643	229.786986336115	458
1	3667	231.145843681289	459
1	3667	231.145843681289	460
1	3667	231.145843681289	461
1	3692	232.92309472767	462
1	3692	232.92309472767	463
1	3692	232.92309472767	464
1	3724	233.996437089976	465
1	3724	233.996437089976	466
1	3724	233.996437089976	467
1	3731	235.126105230898	468
1	3731	235.126105230898	469
1	3731	235.126105230898	470
1	3757	236.281054406671	471
1	3757	236.281054406671	472
1	3757	236.281054406671	473
1	3781	237.56216466953	474
1	3781	237.56216466953	475
1	3781	237.56216466953	476
1	3803	238.751694906998	477
1	3803	238.751694906998	478
1	3803	238.751694906998	479
1	3828	239.941032087214	480
1	3828	239.941032087214	481
1	3828	239.941032087214	482
2	8	0.138891997659	0
2	8	0.138891997659	1
2	8	0.138891997659	2
2	34	2.112330136425	3
2	34	2.112330136425	4
2	34	2.112330136425	5
2	69	4.042686485965	6
2	69	4.042686485965	7
2	69	4.042686485965	8
2	81	5.829809598982	9
2	81	5.829809598982	10
2	81	5.829809598982	11
2	103	7.600648206989	12
2	103	7.600648206989	13
2	103	7.600648206989	14
2	141	10.63311212862	15
2	141	10.63311212862	16
2	141	10.63311212862	17
2	164	12.134906330599	18
2	164	12.134906330599	19
2	164	12.134906330599	20
2	189	13.871771063344	21
2	189	13.871771063344	22
2	189	13.871771063344	23
2	216	15.733124342465	24
2	216	15.733124342465	25
2	216	15.733124342465	26
2	233	17.19856379429	27
2	233	17.19856379429	28
2	233	17.19856379429	29
2	258	18.935578739872	30
2	258	18.935578739872	31
2	258	18.935578739872	32
2	281	20.792240194683	33
2	281	20.792240194683	34
2	281	20.792240194683	35
2	303	22.413252204337	36
2	303	22.413252204337	37
2	303	22.413252204337	38
2	328	23.449366468712	39
2	328	23.449366468712	40
2	328	23.449366468712	41
2	353	24.499042331695	42
2	353	24.499042331695	43
2	353	24.499042331695	44
2	377	26.481226815176	45
2	377	26.481226815176	46
2	377	26.481226815176	47
2	406	27.857851273234	48
2	406	27.857851273234	49
2	406	27.857851273234	50
2	425	28.852176116927	51
2	425	28.852176116927	52
2	425	28.852176116927	53
2	450	30.657324438212	54
2	450	30.657324438212	55
2	450	30.657324438212	56
2	482	32.030989491672	57
2	482	32.030989491672	58
2	482	32.030989491672	59
2	497	33.787800756543	60
2	497	33.787800756543	61
2	497	33.787800756543	62
2	522	35.374783141195	63
2	522	35.374783141195	64
2	522	35.374783141195	65
2	553	37.018036675798	66
2	553	37.018036675798	67
2	553	37.018036675798	68
2	571	38.032945449762	69
2	571	38.032945449762	70
2	571	38.032945449762	71
2	604	39.724596494313	72
2	604	39.724596494313	73
2	604	39.724596494313	74
2	624	41.332749374802	75
2	624	41.332749374802	76
2	624	41.332749374802	77
2	648	42.555312663028	78
2	648	42.555312663028	79
2	648	42.555312663028	80
2	682	43.650144851404	81
2	682	43.650144851404	82
2	682	43.650144851404	83
2	697	44.837054996544	84
2	697	44.837054996544	85
2	697	44.837054996544	86
2	721	45.887981121681	87
2	721	45.887981121681	88
2	721	45.887981121681	89
2	751	47.3640974083	90
2	751	47.3640974083	91
2	751	47.3640974083	92
2	778	48.803148330265	93
2	778	48.803148330265	94
2	778	48.803148330265	95
2	800	50.774817157419	96
2	800	50.774817157419	97
2	800	50.774817157419	98
2	822	51.855154708552	99
2	822	51.855154708552	100
2	822	51.855154708552	101
2	846	53.134892097408	102
2	846	53.134892097408	103
2	846	53.134892097408	104
2	871	54.176033434782	105
2	871	54.176033434782	106
2	871	54.176033434782	107
2	893	56.115495632903	108
2	893	56.115495632903	109
2	893	56.115495632903	110
2	908	57.239948803326	111
2	908	57.239948803326	112
2	908	57.239948803326	113
2	935	58.422222860364	114
2	935	58.422222860364	115
2	935	58.422222860364	116
2	958	60.271952496354	117
2	958	60.271952496354	118
2	958	60.271952496354	119
2	983	61.290747350434	120
2	983	61.290747350434	121
2	983	61.290747350434	122
2	1008	63.181251501336	123
2	1008	63.181251501336	124
2	1008	63.181251501336	125
2	1029	64.275110603511	126
2	1029	64.275110603511	127
2	1029	64.275110603511	128
2	1052	65.510044203497	129
2	1052	65.510044203497	130
2	1052	65.510044203497	131
2	1086	66.714843439604	132
2	1086	66.714843439604	133
2	1086	66.714843439604	134
2	1105	68.509957401179	135
2	1105	68.509957401179	136
2	1105	68.509957401179	137
2	1126	69.51755334839	138
2	1126	69.51755334839	139
2	1126	69.51755334839	140
2	1150	71.390097656081	141
2	1150	71.390097656081	142
2	1150	71.390097656081	143
2	1183	72.935061252634	144
2	1183	72.935061252634	145
2	1183	72.935061252634	146
2	1198	74.110898692363	147
2	1198	74.110898692363	148
2	1198	74.110898692363	149
2	1220	75.300879563825	150
2	1220	75.300879563825	151
2	1220	75.300879563825	152
2	1238	76.893143085675	153
2	1238	76.893143085675	154
2	1238	76.893143085675	155
2	1270	78.6942136644	156
2	1270	78.6942136644	157
2	1270	78.6942136644	158
2	1284	80.312376777966	159
2	1284	80.312376777966	160
2	1284	80.312376777966	161
2	1316	81.40679961575	162
2	1316	81.40679961575	163
2	1316	81.40679961575	164
2	1341	82.515507083949	165
2	1341	82.515507083949	166
2	1341	82.515507083949	167
2	1359	83.950177263552	168
2	1359	83.950177263552	169
2	1359	83.950177263552	170
2	1385	85.22865773155	171
2	1385	85.22865773155	172
2	1385	85.22865773155	173
2	1413	86.509283343748	174
2	1413	86.509283343748	175
2	1413	86.509283343748	176
2	1437	87.790312656637	177
2	1437	87.790312656637	178
2	1437	87.790312656637	179
2	1460	89.488888914424	180
2	1460	89.488888914424	181
2	1460	89.488888914424	182
2	1495	91.410864093355	183
2	1495	91.410864093355	184
2	1495	91.410864093355	185
2	1516	92.545960502614	186
2	1516	92.545960502614	187
2	1516	92.545960502614	188
2	1534	93.646090219019	189
2	1534	93.646090219019	190
2	1534	93.646090219019	191
2	1559	95.210770625855	192
2	1559	95.210770625855	193
2	1559	95.210770625855	194
2	1583	96.870417164863	195
2	1583	96.870417164863	196
2	1583	96.870417164863	197
2	1607	98.500133387737	198
2	1607	98.500133387737	199
2	1607	98.500133387737	200
2	1634	99.8253399617	201
2	1634	99.8253399617	202
2	1634	99.8253399617	203
2	1656	101.752084415015	204
2	1656	101.752084415015	205
2	1656	101.752084415015	206
2	1682	103.01665388538	207
2	1682	103.01665388538	208
2	1682	103.01665388538	209
2	1704	104.763797258116	210
2	1704	104.763797258116	211
2	1704	104.763797258116	212
2	1728	106.269091969582	213
2	1728	106.269091969582	214
2	1728	106.269091969582	215
2	1761	107.921219294532	216
2	1761	107.921219294532	217
2	1761	107.921219294532	218
2	1772	109.846036480326	219
2	1772	109.846036480326	220
2	1772	109.846036480326	221
2	1801	111.823126028684	222
2	1801	111.823126028684	223
2	1801	111.823126028684	224
2	1823	113.180329915064	225
2	1823	113.180329915064	226
2	1823	113.180329915064	227
2	1854	114.946914995108	228
2	1854	114.946914995108	229
2	1854	114.946914995108	230
2	1872	116.088826003915	231
2	1872	116.088826003915	232
2	1872	116.088826003915	233
2	1899	117.529455805409	234
2	1899	117.529455805409	235
2	1899	117.529455805409	236
2	1917	118.921037615254	237
2	1917	118.921037615254	238
2	1917	118.921037615254	239
2	1940	120.064952605857	240
2	1940	120.064952605857	241
2	1940	120.064952605857	242
2	1961	121.794500510262	243
2	1961	121.794500510262	244
2	1961	121.794500510262	245
2	1989	123.549778250063	246
2	1989	123.549778250063	247
2	1989	123.549778250063	248
2	2014	125.490662324777	249
2	2014	125.490662324777	250
2	2014	125.490662324777	251
2	2035	126.564631764195	252
2	2035	126.564631764195	253
2	2035	126.564631764195	254
2	2071	127.641303230781	255
2	2071	127.641303230781	256
2	2071	127.641303230781	257
2	2093	128.908491007989	258
2	2093	128.908491007989	259
2	2093	128.908491007989	260
2	2110	130.730077486565	261
2	2110	130.730077486565	262
2	2110	130.730077486565	263
2	2138	132.398886123187	264
2	2138	132.398886123187	265
2	2138	132.398886123187	266
2	2168	134.017886495118	267
2	2168	134.017886495118	268
2	2168	134.017886495118	269
2	2185	135.407010541415	270
2	2185	135.407010541415	271
2	2185	135.407010541415	272
2	2221	137.289890766723	273
2	2221	137.289890766723	274
2	2221	137.289890766723	275
2	2233	138.907990738661	276
2	2233	138.907990738661	277
2	2233	138.907990738661	278
2	2260	139.986583036809	279
2	2260	139.986583036809	280
2	2260	139.986583036809	281
2	2285	141.890046496028	282
2	2285	141.890046496028	283
2	2285	141.890046496028	284
2	2310	143.361735584185	285
2	2310	143.361735584185	286
2	2310	143.361735584185	287
2	2336	145.127885338748	288
2	2336	145.127885338748	289
2	2336	145.127885338748	290
2	2361	147.074974047928	291
2	2361	147.074974047928	292
2	2361	147.074974047928	293
2	2389	148.798619919822	294
2	2389	148.798619919822	295
2	2389	148.798619919822	296
2	2409	150.665427672933	297
2	2409	150.665427672933	298
2	2409	150.665427672933	299
2	2439	152.524768777871	300
2	2439	152.524768777871	301
2	2439	152.524768777871	302
2	2457	153.892996405852	303
2	2457	153.892996405852	304
2	2457	153.892996405852	305
2	2480	154.997479223743	306
2	2480	154.997479223743	307
2	2480	154.997479223743	308
2	2509	156.27579682216	309
2	2509	156.27579682216	310
2	2509	156.27579682216	311
2	2527	158.085570487987	312
2	2527	158.085570487987	313
2	2527	158.085570487987	314
2	2558	159.214118889112	315
2	2558	159.214118889112	316
2	2558	159.214118889112	317
2	2576	160.466528920702	318
2	2576	160.466528920702	319
2	2576	160.466528920702	320
2	2600	161.471362244915	321
2	2600	161.471362244915	322
2	2600	161.471362244915	323
2	2627	163.114602947719	324
2	2627	163.114602947719	325
2	2627	163.114602947719	326
2	2649	164.508945304991	327
2	2649	164.508945304991	328
2	2649	164.508945304991	329
2	2680	165.910659861853	330
2	2680	165.910659861853	331
2	2680	165.910659861853	332
2	2703	167.310418021312	333
2	2703	167.310418021312	334
2	2703	167.310418021312	335
2	2727	168.949021702203	336
2	2727	168.949021702203	337
2	2727	168.949021702203	338
2	2752	170.671147708216	339
2	2752	170.671147708216	340
2	2752	170.671147708216	341
2	2795	174.142730147451	342
2	2795	174.142730147451	343
2	2795	174.142730147451	344
2	2813	175.79323332065	345
2	2813	175.79323332065	346
2	2813	175.79323332065	347
2	2838	177.194710433873	348
2	2838	177.194710433873	349
2	2838	177.194710433873	350
2	2854	178.954276814329	351
2	2854	178.954276814329	352
2	2854	178.954276814329	353
2	2878	180.243413376709	354
2	2878	180.243413376709	355
2	2878	180.243413376709	356
2	2904	182.185432512829	357
2	2904	182.185432512829	358
2	2904	182.185432512829	359
2	2928	183.530585491742	360
2	2928	183.530585491742	361
2	2928	183.530585491742	362
2	2954	185.184957261134	363
2	2954	185.184957261134	364
2	2954	185.184957261134	365
2	2975	186.820357665293	366
2	2975	186.820357665293	367
2	2975	186.820357665293	368
2	3007	188.813763202301	369
2	3007	188.813763202301	370
2	3007	188.813763202301	371
2	3029	190.528967931944	372
2	3029	190.528967931944	373
2	3029	190.528967931944	374
2	3054	192.32820153439	375
2	3054	192.32820153439	376
2	3054	192.32820153439	377
2	3072	194.220673464043	378
2	3072	194.220673464043	379
2	3072	194.220673464043	380
2	3096	195.642658775379	381
2	3096	195.642658775379	382
2	3096	195.642658775379	383
2	3119	196.640891786758	384
2	3119	196.640891786758	385
2	3119	196.640891786758	386
2	3141	198.564636706991	387
2	3141	198.564636706991	388
2	3141	198.564636706991	389
2	3170	199.753208771126	390
2	3170	199.753208771126	391
2	3170	199.753208771126	392
2	3194	201.622408736931	393
2	3194	201.622408736931	394
2	3194	201.622408736931	395
2	3216	203.01491091204	396
2	3216	203.01491091204	397
2	3216	203.01491091204	398
2	3240	204.179622317532	399
2	3240	204.179622317532	400
2	3240	204.179622317532	401
2	3265	205.210272109899	402
2	3265	205.210272109899	403
2	3265	205.210272109899	404
2	3290	207.028178953021	405
2	3290	207.028178953021	406
2	3290	207.028178953021	407
2	3320	208.637997921421	408
2	3320	208.637997921421	409
2	3320	208.637997921421	410
2	3338	210.582695715378	411
2	3338	210.582695715378	412
2	3338	210.582695715378	413
2	3363	212.211815309395	414
2	3363	212.211815309395	415
2	3363	212.211815309395	416
2	3388	213.618383851791	417
2	3388	213.618383851791	418
2	3388	213.618383851791	419
2	3406	214.825516121175	420
2	3406	214.825516121175	421
2	3406	214.825516121175	422
2	3435	216.745199151639	423
2	3435	216.745199151639	424
2	3435	216.745199151639	425
2	3456	218.527863223165	426
2	3456	218.527863223165	427
2	3456	218.527863223165	428
2	3484	219.814777544359	429
2	3484	219.814777544359	430
2	3484	219.814777544359	431
2	3517	221.271274735429	432
2	3517	221.271274735429	433
2	3517	221.271274735429	434
2	3532	222.812591586743	435
2	3532	222.812591586743	436
2	3532	222.812591586743	437
2	3560	224.208718743434	438
2	3560	224.208718743434	439
2	3560	224.208718743434	440
2	3581	225.279139510068	441
2	3581	225.279139510068	442
2	3581	225.279139510068	443
2	3607	226.905946875628	444
2	3607	226.905946875628	445
2	3607	226.905946875628	446
2	3624	228.426381462671	447
2	3624	228.426381462671	448
2	3624	228.426381462671	449
2	3650	229.798140388886	450
2	3650	229.798140388886	451
2	3650	229.798140388886	452
2	3672	231.158570013583	453
2	3672	231.158570013583	454
2	3672	231.158570013583	455
2	3707	232.973540101202	456
2	3707	232.973540101202	457
2	3707	232.973540101202	458
2	3736	235.136913582892	459
2	3736	235.136913582892	460
2	3736	235.136913582892	461
2	3763	236.297332992431	462
2	3763	236.297332992431	463
2	3763	236.297332992431	464
2	3785	237.574588055349	465
2	3785	237.574588055349	466
2	3785	237.574588055349	467
2	3809	238.774237687829	468
2	3809	238.774237687829	469
2	3809	238.774237687829	470
2	3836	239.96024531698	471
2	3836	239.96024531698	472
2	3836	239.96024531698	473
3	12	0.150953143999	0
3	12	0.150953143999	1
3	44	2.138461813338	2
3	44	2.138461813338	3
3	110	7.619428265492	4
3	110	7.619428265492	5
3	178	12.167529039549	6
3	178	12.167529039549	7
3	199	13.885357267417	8
3	199	13.885357267417	9
3	220	15.743850925719	10
3	220	15.743850925719	11
3	242	17.215879803178	12
3	242	17.215879803178	13
3	270	18.980510467225	14
3	270	18.980510467225	15
3	339	23.476179909759	16
3	339	23.476179909759	17
3	361	24.511434218771	18
3	361	24.511434218771	19
3	385	26.495150095468	20
3	385	26.495150095468	21
3	411	27.874506411854	22
3	411	27.874506411854	23
3	432	28.862304058564	24
3	432	28.862304058564	25
3	486	32.048839863044	26
3	486	32.048839863044	27
3	505	33.800740477976	28
3	505	33.800740477976	29
3	536	35.404769459858	30
3	536	35.404769459858	31
3	558	37.030519575411	32
3	558	37.030519575411	33
3	577	38.044992524005	34
3	577	38.044992524005	35
3	611	39.740886582122	36
3	611	39.740886582122	37
3	632	41.344893229127	38
3	632	41.344893229127	39
3	657	42.567011260311	40
3	657	42.567011260311	41
3	686	43.669956120102	42
3	686	43.669956120102	43
3	703	44.850677306155	44
3	703	44.850677306155	45
3	730	45.906056205906	46
3	730	45.906056205906	47
3	758	47.380783405259	48
3	758	47.380783405259	49
3	786	48.829173163974	50
3	786	48.829173163974	51
3	808	50.786237743988	52
3	808	50.786237743988	53
3	833	51.879688087595	54
3	833	51.879688087595	55
3	850	53.153414018426	56
3	850	53.153414018426	57
3	875	54.186411087361	58
3	875	54.186411087361	59
3	916	57.255071632335	60
3	916	57.255071632335	61
3	943	58.447020796827	62
3	943	58.447020796827	63
3	964	60.290128643748	64
3	964	60.290128643748	65
3	989	61.301360245291	66
3	989	61.301360245291	67
3	1037	64.29356696569	68
3	1037	64.29356696569	69
3	1065	65.557074000019	70
3	1065	65.557074000019	71
3	1112	68.520139763487	72
3	1112	68.520139763487	73
3	1134	69.53617550243	74
3	1134	69.53617550243	75
3	1158	71.408319513965	76
3	1158	71.408319513965	77
3	1247	76.907360024372	78
3	1247	76.907360024372	79
3	1274	78.718041564167	80
3	1274	78.718041564167	81
3	1290	80.329191262042	82
3	1290	80.329191262042	83
3	1324	81.424305344468	84
3	1324	81.424305344468	85
3	1349	82.535980605958	86
3	1349	82.535980605958	87
3	1368	83.967659932871	88
3	1368	83.967659932871	89
3	1395	85.24225447925	90
3	1395	85.24225447925	91
3	1421	86.521786976109	92
3	1421	86.521786976109	93
3	1442	87.801719240058	94
3	1442	87.801719240058	95
3	1466	89.501787614285	96
3	1466	89.501787614285	97
3	1499	91.437093860914	98
3	1499	91.437093860914	99
3	1521	92.558062179843	100
3	1521	92.558062179843	101
3	1564	95.221788450884	102
3	1564	95.221788450884	103
3	1596	96.883916836852	104
3	1596	96.883916836852	105
3	1613	98.516108694915	106
3	1613	98.516108694915	107
3	1664	101.771592944146	108
3	1664	101.771592944146	109
3	1690	103.037839369559	110
3	1690	103.037839369559	111
3	1736	106.287751761606	112
3	1736	106.287751761606	113
3	1778	109.856167479524	114
3	1778	109.856167479524	115
3	1808	111.833151653218	116
3	1808	111.833151653218	117
3	1830	113.196341727191	118
3	1830	113.196341727191	119
3	1928	118.943064790554	120
3	1928	118.943064790554	121
3	1971	121.80705880318	122
3	1971	121.80705880318	123
3	1997	123.563723015169	124
3	1997	123.563723015169	125
3	2021	125.50355515798	126
3	2021	125.50355515798	127
3	2043	126.580672763852	128
3	2043	126.580672763852	129
3	2075	127.652644753559	130
3	2075	127.652644753559	131
3	2100	128.94524353349	132
3	2100	128.94524353349	133
3	2119	130.753259168333	134
3	2119	130.753259168333	135
3	2147	132.431614936942	136
3	2147	132.431614936942	137
3	2175	134.02929540101	138
3	2175	134.02929540101	139
3	2197	135.426573970682	140
3	2197	135.426573970682	141
3	2247	138.937325676008	142
3	2247	138.937325676008	143
3	2269	139.99938610353	144
3	2269	139.99938610353	145
3	2294	141.904328948965	146
3	2294	141.904328948965	147
3	2319	143.388635391923	148
3	2319	143.388635391923	149
3	2344	145.144076912403	150
3	2344	145.144076912403	151
3	2372	147.107458087588	152
3	2372	147.107458087588	153
3	2394	148.815056904907	154
3	2394	148.815056904907	155
3	2422	150.72462767653	156
3	2422	150.72462767653	157
3	2488	155.008864771718	158
3	2488	155.008864771718	159
3	2516	156.288024197811	160
3	2516	156.288024197811	161
3	2538	158.111999996323	162
3	2538	158.111999996323	163
3	2588	160.517035905544	164
3	2588	160.517035905544	165
3	2609	161.483392729082	166
3	2609	161.483392729082	167
3	2635	163.133736420761	168
3	2635	163.133736420761	169
3	2660	164.52966082602	170
3	2660	164.52966082602	171
3	2710	167.323500710791	172
3	2710	167.323500710791	173
3	2732	168.97350361876	174
3	2732	168.97350361876	175
3	2756	170.686002465673	176
3	2756	170.686002465673	177
3	2799	174.174622397942	178
3	2799	174.174622397942	179
3	2864	178.978467538058	180
3	2864	178.978467538058	181
3	2886	180.262766876296	182
3	2886	180.262766876296	183
3	2910	182.203961045674	184
3	2910	182.203961045674	185
3	2962	185.198340616093	186
3	2962	185.198340616093	187
3	2985	186.838374605667	188
3	2985	186.838374605667	189
3	3011	188.830550175293	190
3	3011	188.830550175293	191
3	3058	192.351743289422	192
3	3058	192.351743289422	193
3	3080	194.234680830905	194
3	3080	194.234680830905	195
3	3148	198.579725697886	196
3	3148	198.579725697886	197
3	3177	199.79579859962	198
3	3177	199.79579859962	199
3	3202	201.660713163473	200
3	3202	201.660713163473	201
3	3223	203.036588714787	202
3	3223	203.036588714787	203
3	3249	204.200423885728	204
3	3249	204.200423885728	205
3	3273	205.223367969462	206
3	3273	205.223367969462	207
3	3294	207.045686745551	208
3	3294	207.045686745551	209
3	3327	208.672275230221	210
3	3327	208.672275230221	211
3	3396	213.645024329547	212
3	3396	213.645024329547	213
3	3411	214.840134527747	214
3	3411	214.840134527747	215
3	3443	216.7554856428	216
3	3443	216.7554856428	217
3	3462	218.543257220007	218
3	3462	218.543257220007	219
3	3496	219.837618294531	220
3	3496	219.837618294531	221
3	3540	222.824442399765	222
3	3540	222.824442399765	223
3	3565	224.225218161721	224
3	3565	224.225218161721	225
3	3611	226.939006784483	226
3	3611	226.939006784483	227
3	3633	228.445168801854	228
3	3633	228.445168801854	229
3	3657	229.810951919058	230
3	3657	229.810951919058	231
3	3679	231.181151732604	232
3	3679	231.181151732604	233
3	3711	232.990458403827	234
3	3711	232.990458403827	235
3	3747	235.156972476147	236
3	3747	235.156972476147	237
3	3768	236.326088027282	238
3	3768	236.326088027282	239
3	3818	238.785447684688	240
3	3818	238.785447684688	241
3	3844	239.990640664175	242
3	3844	239.990640664175	243
4	13	0.153131762447	0
4	13	0.153131762447	1
4	13	0.153131762447	2
4	47	2.156832407298	3
4	47	2.156832407298	4
4	47	2.156832407298	5
4	61	4.00101189674	6
4	61	4.00101189674	7
4	61	4.00101189674	8
4	91	5.854357464614	9
4	91	5.854357464614	10
4	91	5.854357464614	11
4	114	7.621215148382	12
4	114	7.621215148382	13
4	114	7.621215148382	14
4	146	10.659583074223	15
4	146	10.659583074223	16
4	146	10.659583074223	17
4	171	12.150494087838	18
4	171	12.150494087838	19
4	171	12.150494087838	20
4	241	17.208894083214	21
4	241	17.208894083214	22
4	241	17.208894083214	23
4	266	18.953811986932	24
4	266	18.953811986932	25
4	266	18.953811986932	26
4	288	20.802695942758	27
4	288	20.802695942758	28
4	288	20.802695942758	29
4	311	22.425015025005	30
4	311	22.425015025005	31
4	311	22.425015025005	32
4	332	23.458102036796	33
4	332	23.458102036796	34
4	332	23.458102036796	35
4	360	24.509813933393	36
4	360	24.509813933393	37
4	360	24.509813933393	38
4	388	26.50878280496	39
4	388	26.50878280496	40
4	388	26.50878280496	41
4	410	27.873074816005	42
4	410	27.873074816005	43
4	410	27.873074816005	44
4	438	28.881601255021	45
4	438	28.881601255021	46
4	438	28.881601255021	47
4	460	30.669015379433	48
4	460	30.669015379433	49
4	460	30.669015379433	50
4	478	32.017202552812	51
4	478	32.017202552812	52
4	478	32.017202552812	53
4	510	33.830830567255	54
4	510	33.830830567255	55
4	510	33.830830567255	56
4	532	35.391487678597	57
4	532	35.391487678597	58
4	532	35.391487678597	59
4	554	37.021708905952	60
4	554	37.021708905952	61
4	554	37.021708905952	62
4	575	38.043817887585	63
4	575	38.043817887585	64
4	575	38.043817887585	65
4	603	39.719186992765	66
4	603	39.719186992765	67
4	603	39.719186992765	68
4	633	41.349672533474	69
4	633	41.349672533474	70
4	633	41.349672533474	71
4	658	42.568857886582	72
4	658	42.568857886582	73
4	658	42.568857886582	74
4	674	43.635804333312	75
4	674	43.635804333312	76
4	674	43.635804333312	77
4	704	44.850820207823	78
4	704	44.850820207823	79
4	704	44.850820207823	80
4	729	45.903280431553	81
4	729	45.903280431553	82
4	729	45.903280431553	83
4	757	47.377588622603	84
4	757	47.377588622603	85
4	757	47.377588622603	86
4	779	48.804424230323	87
4	779	48.804424230323	88
4	779	48.804424230323	89
4	804	50.784516548006	90
4	804	50.784516548006	91
4	804	50.784516548006	92
4	828	51.869347115868	93
4	828	51.869347115868	94
4	828	51.869347115868	95
4	863	54.159608819464	96
4	863	54.159608819464	97
4	863	54.159608819464	98
4	892	56.109260933779	99
4	892	56.109260933779	100
4	892	56.109260933779	101
4	915	57.252823633289	102
4	915	57.252823633289	103
4	915	57.252823633289	104
4	939	58.433549949564	105
4	939	58.433549949564	106
4	939	58.433549949564	107
4	965	60.293671679627	108
4	965	60.293671679627	109
4	965	60.293671679627	110
4	996	61.322506829378	111
4	996	61.322506829378	112
4	996	61.322506829378	113
4	1033	64.284554393656	114
4	1033	64.284554393656	115
4	1033	64.284554393656	116
4	1061	65.521883231034	117
4	1061	65.521883231034	118
4	1061	65.521883231034	119
4	1082	66.698520503796	120
4	1082	66.698520503796	121
4	1082	66.698520503796	122
4	1104	68.504253978288	123
4	1104	68.504253978288	124
4	1104	68.504253978288	125
4	1133	69.529876617837	126
4	1133	69.529876617837	127
4	1133	69.529876617837	128
4	1159	71.41123683785	129
4	1159	71.41123683785	130
4	1159	71.41123683785	131
4	1179	72.887561793139	132
4	1179	72.887561793139	133
4	1179	72.887561793139	134
4	1205	74.135930353138	135
4	1205	74.135930353138	136
4	1205	74.135930353138	137
4	1227	75.311583452016	138
4	1227	75.311583452016	139
4	1227	75.311583452016	140
4	1252	76.920771257744	141
4	1252	76.920771257744	142
4	1252	76.920771257744	143
4	1289	80.323794270252	144
4	1289	80.323794270252	145
4	1289	80.323794270252	146
4	1317	81.407081290533	147
4	1317	81.407081290533	148
4	1317	81.407081290533	149
4	1342	82.515831926853	150
4	1342	82.515831926853	151
4	1342	82.515831926853	152
4	1364	83.960509724395	153
4	1364	83.960509724395	154
4	1364	83.960509724395	155
4	1398	85.260115981983	156
4	1398	85.260115981983	157
4	1398	85.260115981983	158
4	1417	86.515230375314	159
4	1417	86.515230375314	160
4	1417	86.515230375314	161
4	1443	87.802061279737	162
4	1443	87.802061279737	163
4	1443	87.802061279737	164
4	1467	89.5109528731	165
4	1467	89.5109528731	166
4	1467	89.5109528731	167
4	1487	91.386317077297	168
4	1487	91.386317077297	169
4	1487	91.386317077297	170
4	1517	92.550610053762	171
4	1517	92.550610053762	172
4	1517	92.550610053762	173
4	1542	93.658544252453	174
4	1542	93.658544252453	175
4	1542	93.658544252453	176
4	1565	95.222352670353	177
4	1565	95.222352670353	178
4	1565	95.222352670353	179
4	1587	96.871613129381	180
4	1587	96.871613129381	181
4	1587	96.871613129381	182
4	1620	98.537600803554	183
4	1620	98.537600803554	184
4	1620	98.537600803554	185
4	1639	99.840885392324	186
4	1639	99.840885392324	187
4	1639	99.840885392324	188
4	1665	101.77253454526	189
4	1665	101.77253454526	190
4	1665	101.77253454526	191
4	1689	103.036206325932	192
4	1689	103.036206325932	193
4	1689	103.036206325932	194
4	1714	104.814423407775	195
4	1714	104.814423407775	196
4	1714	104.814423407775	197
4	1739	106.304955276753	198
4	1739	106.304955276753	199
4	1739	106.304955276753	200
4	1754	107.908431541993	201
4	1754	107.908431541993	202
4	1754	107.908431541993	203
4	1779	109.856707198775	204
4	1779	109.856707198775	205
4	1779	109.856707198775	206
4	1809	111.833796396519	207
4	1809	111.833796396519	208
4	1809	111.833796396519	209
4	1831	113.202655725614	210
4	1831	113.202655725614	211
4	1831	113.202655725614	212
4	1858	114.965547568275	213
4	1858	114.965547568275	214
4	1858	114.965547568275	215
4	1877	116.098851912325	216
4	1877	116.098851912325	217
4	1877	116.098851912325	218
4	1898	117.521232307732	219
4	1898	117.521232307732	220
4	1898	117.521232307732	221
4	1921	118.927920751362	222
4	1921	118.927920751362	223
4	1921	118.927920751362	224
4	1949	120.078003267554	225
4	1949	120.078003267554	226
4	1949	120.078003267554	227
4	1972	121.808937473294	228
4	1972	121.808937473294	229
4	1972	121.808937473294	230
4	1996	123.561351369525	231
4	1996	123.561351369525	232
4	1996	123.561351369525	233
4	2022	125.507134901686	234
4	2022	125.507134901686	235
4	2022	125.507134901686	236
4	2045	126.587066035926	237
4	2045	126.587066035926	238
4	2045	126.587066035926	239
4	2064	127.616599393259	240
4	2064	127.616599393259	241
4	2064	127.616599393259	242
4	2092	128.904060655872	243
4	2092	128.904060655872	244
4	2092	128.904060655872	245
4	2120	130.758840644454	246
4	2120	130.758840644454	247
4	2120	130.758840644454	248
4	2146	132.430336871767	249
4	2146	132.430336871767	250
4	2146	132.430336871767	251
4	2167	134.012255475682	252
4	2167	134.012255475682	253
4	2167	134.012255475682	254
4	2191	135.417620546209	255
4	2191	135.417620546209	256
4	2191	135.417620546209	257
4	2213	137.262598516179	258
4	2213	137.262598516179	259
4	2213	137.262598516179	260
4	2238	138.916246080271	261
4	2238	138.916246080271	262
4	2238	138.916246080271	263
4	2268	139.998057776388	264
4	2268	139.998057776388	265
4	2268	139.998057776388	266
4	2293	141.901451161022	267
4	2293	141.901451161022	268
4	2293	141.901451161022	269
4	2318	143.381242488369	270
4	2318	143.381242488369	271
4	2318	143.381242488369	272
4	2343	145.140099183513	273
4	2343	145.140099183513	274
4	2343	145.140099183513	275
4	2368	147.086715331987	276
4	2368	147.086715331987	277
4	2368	147.086715331987	278
4	2393	148.809403931699	279
4	2393	148.809403931699	280
4	2393	148.809403931699	281
4	2418	150.686977023872	282
4	2418	150.686977023872	283
4	2418	150.686977023872	284
4	2443	152.535781004024	285
4	2443	152.535781004024	286
4	2443	152.535781004024	287
4	2465	153.914572289662	288
4	2465	153.914572289662	289
4	2465	153.914572289662	290
4	2484	155.007178823136	291
4	2484	155.007178823136	292
4	2484	155.007178823136	293
4	2508	156.271628210842	294
4	2508	156.271628210842	295
4	2508	156.271628210842	296
4	2537	158.103577349971	297
4	2537	158.103577349971	298
4	2537	158.103577349971	299
4	2559	159.222008103678	300
4	2559	159.222008103678	301
4	2559	159.222008103678	302
4	2584	160.481725112929	303
4	2584	160.481725112929	304
4	2584	160.481725112929	305
4	2610	161.483989183791	306
4	2610	161.483989183791	307
4	2610	161.483989183791	308
4	2634	163.128202405628	309
4	2634	163.128202405628	310
4	2634	163.128202405628	311
4	2659	164.524983341075	312
4	2659	164.524983341075	313
4	2659	164.524983341075	314
4	2681	165.916153555121	315
4	2681	165.916153555121	316
4	2681	165.916153555121	317
4	2702	167.30851239446	318
4	2702	167.30851239446	319
4	2702	167.30851239446	320
4	2731	168.968178120254	321
4	2731	168.968178120254	322
4	2731	168.968178120254	323
4	2759	170.708015853473	324
4	2759	170.708015853473	325
4	2759	170.708015853473	326
4	2791	174.120594895559	327
4	2791	174.120594895559	328
4	2791	174.120594895559	329
4	2820	175.810716788434	330
4	2820	175.810716788434	331
4	2820	175.810716788434	332
4	2842	177.208460003778	333
4	2842	177.208460003778	334
4	2842	177.208460003778	335
4	2865	178.985212748543	336
4	2865	178.985212748543	337
4	2865	178.985212748543	338
4	2885	180.261241957283	339
4	2885	180.261241957283	340
4	2885	180.261241957283	341
4	2913	182.216093670536	342
4	2913	182.216093670536	343
4	2913	182.216093670536	344
4	2934	183.540687737214	345
4	2934	183.540687737214	346
4	2934	183.540687737214	347
4	2961	185.196386813299	348
4	2961	185.196386813299	349
4	2961	185.196386813299	350
4	2984	186.83240688648	351
4	2984	186.83240688648	352
4	2984	186.83240688648	353
4	3024	190.515132602753	354
4	3024	190.515132602753	355
4	3024	190.515132602753	356
4	3050	192.311395145194	357
4	3050	192.311395145194	358
4	3050	192.311395145194	359
4	3076	194.230360878856	360
4	3076	194.230360878856	361
4	3076	194.230360878856	362
4	3101	195.658005738378	363
4	3101	195.658005738378	364
4	3101	195.658005738378	365
4	3126	196.654524475491	366
4	3126	196.654524475491	367
4	3126	196.654524475491	368
4	3149	198.586036624219	369
4	3149	198.586036624219	370
4	3149	198.586036624219	371
4	3167	199.749368867995	372
4	3167	199.749368867995	373
4	3167	199.749368867995	374
4	3198	201.646550476349	375
4	3198	201.646550476349	376
4	3198	201.646550476349	377
4	3226	203.060676927586	378
4	3226	203.060676927586	379
4	3226	203.060676927586	380
4	3245	204.198253939331	381
4	3245	204.198253939331	382
4	3245	204.198253939331	383
4	3276	205.249535451097	384
4	3276	205.249535451097	385
4	3276	205.249535451097	386
4	3296	207.048688555899	387
4	3296	207.048688555899	388
4	3296	207.048688555899	389
4	3319	208.636442684473	390
4	3319	208.636442684473	391
4	3319	208.636442684473	392
4	3348	210.604069349074	393
4	3348	210.604069349074	394
4	3348	210.604069349074	395
4	3370	212.236879651237	396
4	3370	212.236879651237	397
4	3370	212.236879651237	398
4	3392	213.630269385863	399
4	3392	213.630269385863	400
4	3392	213.630269385863	401
4	3412	214.843141779089	402
4	3412	214.843141779089	403
4	3412	214.843141779089	404
4	3439	216.754599332889	405
4	3439	216.754599332889	406
4	3439	216.754599332889	407
4	3461	218.5425546479	408
4	3461	218.5425546479	409
4	3461	218.5425546479	410
4	3492	219.825302177901	411
4	3492	219.825302177901	412
4	3492	219.825302177901	413
4	3513	221.258356781816	414
4	3513	221.258356781816	415
4	3513	221.258356781816	416
4	3536	222.81797288709	417
4	3536	222.81797288709	418
4	3536	222.81797288709	419
4	3561	224.217796280896	420
4	3561	224.217796280896	421
4	3561	224.217796280896	422
4	3585	225.306599441547	423
4	3585	225.306599441547	424
4	3585	225.306599441547	425
4	3603	226.881105598827	426
4	3603	226.881105598827	427
4	3603	226.881105598827	428
4	3632	228.444010889777	429
4	3632	228.444010889777	430
4	3632	228.444010889777	431
4	3658	229.813985752793	432
4	3658	229.813985752793	433
4	3658	229.813985752793	434
4	3678	231.175997288059	435
4	3678	231.175997288059	436
4	3678	231.175997288059	437
4	3703	232.958565932473	438
4	3703	232.958565932473	439
4	3703	232.958565932473	440
4	3746	235.153216246661	441
4	3746	235.153216246661	442
4	3746	235.153216246661	443
4	3767	236.323086474333	444
4	3767	236.323086474333	445
4	3767	236.323086474333	446
4	3792	237.599173416691	447
4	3792	237.599173416691	448
4	3792	237.599173416691	449
4	3819	238.788939216035	450
4	3819	238.788939216035	451
4	3819	238.788939216035	452
4	3843	239.982419258477	453
4	3843	239.982419258477	454
4	3843	239.982419258477	455
5	15	0.160953143999	0
5	18	0.163131762447	1
5	46	2.148461813338	2
5	50	2.166832407298	3
5	65	4.01101189674	4
5	116	7.629428265492	5
5	152	10.669583074223	6
5	177	12.160494087838	7
5	201	13.895357267417	8
5	245	17.218894083214	9
5	272	18.990510467225	10
5	294	20.812695942758	11
5	316	22.435015025005	12
5	338	23.468102036796	13
5	341	23.486179909759	14
5	364	24.519813933393	15
5	387	26.505150095468	16
5	391	26.51878280496	17
5	414	27.883074816005	18
5	416	27.884506411854	19
5	463	30.679015379433	20
5	481	32.027202552812	21
5	488	32.058839863044	22
5	509	33.810740477976	23
5	513	33.840830567255	24
5	535	35.401487678597	25
5	538	35.414769459858	26
5	561	37.031708905952	27
5	563	37.040519575411	28
5	580	38.053817887585	29
5	586	38.054992524005	30
5	613	39.750886582122	31
5	635	41.354893229127	32
5	638	41.359672533474	33
5	710	44.860820207823	34
5	734	45.913280431553	35
5	736	45.916056205906	36
5	761	47.387588622603	37
5	788	48.839173163974	38
5	813	50.796237743988	39
5	838	51.889688087595	40
5	867	54.169608819464	41
5	922	57.262823633289	42
5	942	58.443549949564	43
5	946	58.457020796827	44
5	968	60.300128643748	45
5	971	60.303671679627	46
5	992	61.311360245291	47
5	1040	64.294554393656	48
5	1042	64.30356696569	49
5	1064	65.531883231034	50
5	1085	66.708520503796	51
5	1114	68.530139763487	52
5	1137	69.539876617837	53
5	1164	71.42123683785	54
5	1230	75.321583452016	55
5	1251	76.917360024372	56
5	1255	76.930771257744	57
5	1276	78.728041564167	58
5	1296	80.333794270252	59
5	1298	80.339191262042	60
5	1326	81.434305344468	61
5	1348	82.525831926853	62
5	1351	82.545980605958	63
5	1371	83.970509724395	64
5	1374	83.977659932871	65
5	1424	86.525230375314	66
5	1426	86.531786976109	67
5	1448	87.811719240058	68
5	1451	87.812061279737	69
5	1469	89.511787614285	70
5	1473	89.5209528731	71
5	1501	91.447093860914	72
5	1545	93.668544252453	73
5	1570	95.231788450884	74
5	1595	96.881613129381	75
5	1598	96.893916836852	76
5	1616	98.526108694915	77
5	1623	98.547600803554	78
5	1645	99.850885392324	79
5	1667	101.781592944146	80
5	1670	101.78253454526	81
5	1695	103.047839369559	82
5	1717	104.824423407775	83
5	1786	109.866167479524	84
5	1789	109.866707198775	85
5	1811	111.843151653218	86
5	1833	113.206341727191	87
5	1836	113.212655725614	88
5	1861	114.975547568275	89
5	1883	116.108851912325	90
5	1902	117.531232307732	91
5	1952	120.088003267554	92
5	2000	123.571351369525	93
5	2002	123.573723015169	94
5	2024	125.51355515798	95
5	2027	125.517134901686	96
5	2047	126.590672763852	97
5	2052	126.597066035926	98
5	2070	127.626599393259	99
5	2077	127.662644753559	100
5	2096	128.914060655872	101
5	2102	128.95524353349	102
5	2127	130.768840644454	103
5	2150	132.440336871767	104
5	2152	132.441614936942	105
5	2171	134.022255475682	106
5	2177	134.03929540101	107
5	2202	135.436573970682	108
5	2217	137.272598516179	109
5	2249	138.947325676008	110
5	2272	140.008057776388	111
5	2274	140.00938610353	112
5	2299	141.914328948965	113
5	2347	145.150099183513	114
5	2349	145.154076912403	115
5	2371	147.096715331987	116
5	2374	147.117458087588	117
5	2397	148.819403931699	118
5	2446	152.545781004024	119
5	2512	156.281628210842	120
5	2541	158.113577349971	121
5	2543	158.121999996323	122
5	2565	159.232008103678	123
5	2587	160.491725112929	124
5	2590	160.527035905544	125
5	2612	161.493392729082	126
5	2638	163.138202405628	127
5	2640	163.143736420761	128
5	2663	164.534983341075	129
5	2665	164.53966082602	130
5	2687	165.926153555121	131
5	2712	167.333500710791	132
5	2735	168.978178120254	133
5	2737	168.98350361876	134
5	2762	170.718015853473	135
5	2794	174.130594895559	136
5	2801	174.184622397942	137
5	2823	175.820716788434	138
5	2845	177.218460003778	139
5	2870	178.995212748543	140
5	2889	180.271241957283	141
5	2891	180.272766876296	142
5	2917	182.226093670536	143
5	2942	183.550687737214	144
5	2967	185.208340616093	145
5	2990	186.84240688648	146
5	2992	186.848374605667	147
5	3060	192.361743289422	148
5	3083	194.240360878856	149
5	3107	195.668005738378	150
5	3129	196.664524475491	151
5	3154	198.596036624219	152
5	3173	199.759368867995	153
5	3201	201.656550476349	154
5	3204	201.670713163473	155
5	3254	204.210423885728	156
5	3275	205.233367969462	157
5	3298	207.055686745551	158
5	3323	208.646442684473	159
5	3329	208.682275230221	160
5	3373	212.246879651237	161
5	3395	213.640269385863	162
5	3398	213.655024329547	163
5	3416	214.850134527747	164
5	3446	216.764599332889	165
5	3448	216.7654856428	166
5	3468	218.5525546479	167
5	3470	218.553257220007	168
5	3495	219.835302177901	169
5	3498	219.847618294531	170
5	3516	221.268356781816	171
5	3543	222.82797288709	172
5	3545	222.834442399765	173
5	3568	224.227796280896	174
5	3570	224.235218161721	175
5	3588	225.316599441547	176
5	3613	226.949006784483	177
5	3636	228.454010889777	178
5	3638	228.455168801854	179
5	3660	229.820951919058	180
5	3683	231.185997288059	181
5	3706	232.968565932473	182
5	3750	235.163216246661	183
5	3752	235.166972476147	184
5	3772	236.333086474333	185
5	3774	236.336088027282	186
5	3796	237.609173416691	187
5	3821	238.795447684688	188
5	3824	238.798939216035	189
6	19	0.205690100955	0
6	19	0.205690100955	1
6	19	0.205690100955	2
6	35	2.112806916222	3
6	35	2.112806916222	4
6	35	2.112806916222	5
6	57	3.985545509819	6
6	57	3.985545509819	7
6	57	3.985545509819	8
6	80	5.828785245898	9
6	80	5.828785245898	10
6	80	5.828785245898	11
6	106	7.609628372598	12
6	106	7.609628372598	13
6	106	7.609628372598	14
6	130	9.513491640676	15
6	130	9.513491640676	16
6	130	9.513491640676	17
6	145	10.655005184018	18
6	145	10.655005184018	19
6	145	10.655005184018	20
6	167	12.140971839784	21
6	167	12.140971839784	22
6	167	12.140971839784	23
6	192	13.874310534898	24
6	192	13.874310534898	25
6	192	13.874310534898	26
6	208	15.69161888018	27
6	208	15.69161888018	28
6	208	15.69161888018	29
6	234	17.198628477033	30
6	234	17.198628477033	31
6	234	17.198628477033	32
6	259	18.936179653882	33
6	259	18.936179653882	34
6	259	18.936179653882	35
6	282	20.79889781874	36
6	282	20.79889781874	37
6	282	20.79889781874	38
6	302	22.412263088037	39
6	302	22.412263088037	40
6	302	22.412263088037	41
6	324	23.447376091748	42
6	324	23.447376091748	43
6	324	23.447376091748	44
6	349	24.491383225947	45
6	349	24.491383225947	46
6	349	24.491383225947	47
6	378	26.483990897102	48
6	378	26.483990897102	49
6	378	26.483990897102	50
6	400	27.836990408086	51
6	400	27.836990408086	52
6	400	27.836990408086	53
6	428	28.854049941431	54
6	428	28.854049941431	55
6	428	28.854049941431	56
6	449	30.656251397855	57
6	449	30.656251397855	58
6	449	30.656251397855	59
6	474	31.990733204402	60
6	474	31.990733204402	61
6	474	31.990733204402	62
6	496	33.783212132164	63
6	496	33.783212132164	64
6	496	33.783212132164	65
6	523	35.375188258653	66
6	523	35.375188258653	67
6	523	35.375188258653	68
6	546	37.006145426912	69
6	546	37.006145426912	70
6	546	37.006145426912	71
6	576	38.044746910204	72
6	576	38.044746910204	73
6	576	38.044746910204	74
6	595	39.692481373103	75
6	595	39.692481373103	76
6	595	39.692481373103	77
6	625	41.332819696455	78
6	625	41.332819696455	79
6	625	41.332819696455	80
6	647	42.549134400689	81
6	647	42.549134400689	82
6	647	42.549134400689	83
6	670	43.624961994791	84
6	670	43.624961994791	85
6	670	43.624961994791	86
6	705	44.852778327809	87
6	705	44.852778327809	88
6	705	44.852778327809	89
6	722	45.890008177763	90
6	722	45.890008177763	91
6	722	45.890008177763	92
6	746	47.347758484345	93
6	746	47.347758484345	94
6	746	47.347758484345	95
6	774	48.788154236336	96
6	774	48.788154236336	97
6	774	48.788154236336	98
6	799	50.774187978045	99
6	799	50.774187978045	100
6	799	50.774187978045	101
6	829	51.8716143711	102
6	829	51.8716143711	103
6	829	51.8716143711	104
6	859	54.143106553446	105
6	859	54.143106553446	106
6	859	54.143106553446	107
6	885	56.092115196664	108
6	885	56.092115196664	109
6	885	56.092115196664	110
6	911	57.24601773576	111
6	911	57.24601773576	112
6	911	57.24601773576	113
6	944	58.453378402178	114
6	944	58.453378402178	115
6	944	58.453378402178	116
6	966	60.295913632282	117
6	966	60.295913632282	118
6	966	60.295913632282	119
6	990	61.310005634117	120
6	990	61.310005634117	121
6	990	61.310005634117	122
6	1014	63.199587889594	123
6	1014	63.199587889594	124
6	1014	63.199587889594	125
6	1025	64.272593595699	126
6	1025	64.272593595699	127
6	1025	64.272593595699	128
6	1050	65.509391347539	129
6	1050	65.509391347539	130
6	1050	65.509391347539	131
6	1078	66.675423791973	132
6	1078	66.675423791973	133
6	1078	66.675423791973	134
6	1097	68.491333405001	135
6	1097	68.491333405001	136
6	1097	68.491333405001	137
6	1125	69.50826722211	138
6	1125	69.50826722211	139
6	1125	69.50826722211	140
6	1151	71.391501328862	141
6	1151	71.391501328862	142
6	1151	71.391501328862	143
6	1175	72.871584034281	144
6	1175	72.871584034281	145
6	1175	72.871584034281	146
6	1197	74.109847140921	147
6	1197	74.109847140921	148
6	1197	74.109847140921	149
6	1219	75.295447136632	150
6	1219	75.295447136632	151
6	1219	75.295447136632	152
6	1239	76.896734575765	153
6	1239	76.896734575765	154
6	1239	76.896734575765	155
6	1263	78.667130023738	156
6	1263	78.667130023738	157
6	1263	78.667130023738	158
6	1285	80.321911651923	159
6	1285	80.321911651923	160
6	1285	80.321911651923	161
6	1312	81.396362076509	162
6	1312	81.396362076509	163
6	1312	81.396362076509	164
6	1335	82.497647003841	165
6	1335	82.497647003841	166
6	1335	82.497647003841	167
6	1360	83.95663843889	168
6	1360	83.95663843889	169
6	1360	83.95663843889	170
6	1384	85.220246480444	171
6	1384	85.220246480444	172
6	1384	85.220246480444	173
6	1412	86.500915555781	174
6	1412	86.500915555781	175
6	1412	86.500915555781	176
6	1438	87.792988491846	177
6	1438	87.792988491846	178
6	1438	87.792988491846	179
6	1470	89.512986619286	180
6	1470	89.512986619286	181
6	1470	89.512986619286	182
6	1483	91.376227284306	183
6	1483	91.376227284306	184
6	1483	91.376227284306	185
6	1509	92.535722695822	186
6	1509	92.535722695822	187
6	1509	92.535722695822	188
6	1535	93.647727787024	189
6	1535	93.647727787024	190
6	1535	93.647727787024	191
6	1560	95.213260828317	192
6	1560	95.213260828317	193
6	1560	95.213260828317	194
6	1581	96.860965501944	195
6	1581	96.860965501944	196
6	1581	96.860965501944	197
6	1614	98.517073313277	198
6	1614	98.517073313277	199
6	1614	98.517073313277	200
6	1635	99.834299485442	201
6	1635	99.834299485442	202
6	1635	99.834299485442	203
6	1657	101.759665197162	204
6	1657	101.759665197162	205
6	1657	101.759665197162	206
6	1678	103.007593497771	207
6	1678	103.007593497771	208
6	1678	103.007593497771	209
6	1707	104.767829575358	210
6	1707	104.767829575358	211
6	1707	104.767829575358	212
6	1729	106.273961460642	213
6	1729	106.273961460642	214
6	1729	106.273961460642	215
6	1749	107.897801753351	216
6	1749	107.897801753351	217
6	1749	107.897801753351	218
6	1774	109.853205942642	219
6	1774	109.853205942642	220
6	1774	109.853205942642	221
6	1800	111.821765875091	222
6	1800	111.821765875091	223
6	1800	111.821765875091	224
6	1822	113.177437722419	225
6	1822	113.177437722419	226
6	1822	113.177437722419	227
6	1847	114.935160188461	228
6	1847	114.935160188461	229
6	1847	114.935160188461	230
6	1873	116.089698620448	231
6	1873	116.089698620448	232
6	1873	116.089698620448	233
6	1891	117.508093449871	234
6	1891	117.508093449871	235
6	1891	117.508093449871	236
6	1916	118.915498893049	237
6	1916	118.915498893049	238
6	1916	118.915498893049	239
6	1939	120.063919862047	240
6	1939	120.063919862047	241
6	1939	120.063919862047	242
6	1962	121.79505300534	243
6	1962	121.79505300534	244
6	1962	121.79505300534	245
6	1985	123.54577896226	246
6	1985	123.54577896226	247
6	1985	123.54577896226	248
6	2010	125.485297923987	249
6	2010	125.485297923987	250
6	2010	125.485297923987	251
6	2036	126.568184124097	252
6	2036	126.568184124097	253
6	2036	126.568184124097	254
6	2059	127.605945007266	255
6	2059	127.605945007266	256
6	2059	127.605945007266	257
6	2086	128.881831779105	258
6	2086	128.881831779105	259
6	2086	128.881831779105	260
6	2111	130.731987213732	261
6	2111	130.731987213732	262
6	2111	130.731987213732	263
6	2142	132.410533161294	264
6	2142	132.410533161294	265
6	2142	132.410533161294	266
6	2161	133.999680698315	267
6	2161	133.999680698315	268
6	2161	133.999680698315	269
6	2186	135.41152910464	270
6	2186	135.41152910464	271
6	2186	135.41152910464	272
6	2209	137.243318120075	273
6	2209	137.243318120075	274
6	2209	137.243318120075	275
6	2232	138.906124375046	276
6	2232	138.906124375046	277
6	2232	138.906124375046	278
6	2261	139.986619297042	279
6	2261	139.986619297042	280
6	2261	139.986619297042	281
6	2286	141.890718430519	282
6	2286	141.890718430519	283
6	2286	141.890718430519	284
6	2311	143.368260755375	285
6	2311	143.368260755375	286
6	2311	143.368260755375	287
6	2335	145.12536450115	288
6	2335	145.12536450115	289
6	2335	145.12536450115	290
6	2358	147.07175239631	291
6	2358	147.07175239631	292
6	2358	147.07175239631	293
6	2382	148.788404235902	294
6	2382	148.788404235902	295
6	2382	148.788404235902	296
6	2408	150.660926139083	297
6	2408	150.660926139083	298
6	2408	150.660926139083	299
6	2433	152.483099769092	300
6	2433	152.483099769092	301
6	2433	152.483099769092	302
6	2458	153.895423275601	303
6	2458	153.895423275601	304
6	2458	153.895423275601	305
6	2479	154.994904372466	306
6	2479	154.994904372466	307
6	2479	154.994904372466	308
6	2504	156.261535045294	309
6	2504	156.261535045294	310
6	2504	156.261535045294	311
6	2528	158.091716685381	312
6	2528	158.091716685381	313
6	2528	158.091716685381	314
6	2551	159.203681135393	315
6	2551	159.203681135393	316
6	2551	159.203681135393	317
6	2577	160.466959005021	318
6	2577	160.466959005021	319
6	2577	160.466959005021	320
6	2598	161.464718021582	321
6	2598	161.464718021582	322
6	2598	161.464718021582	323
6	2623	163.110960285148	324
6	2623	163.110960285148	325
6	2623	163.110960285148	326
6	2650	164.511255828559	327
6	2650	164.511255828559	328
6	2650	164.511255828559	329
6	2676	165.899927303578	330
6	2676	165.899927303578	331
6	2676	165.899927303578	332
6	2695	167.298231265091	333
6	2695	167.298231265091	334
6	2695	167.298231265091	335
6	2719	168.907138194488	336
6	2719	168.907138194488	337
6	2719	168.907138194488	338
6	2744	170.642982138492	339
6	2744	170.642982138492	340
6	2744	170.642982138492	341
6	2771	172.578664831355	342
6	2771	172.578664831355	343
6	2771	172.578664831355	344
6	2787	174.091452835851	345
6	2787	174.091452835851	346
6	2787	174.091452835851	347
6	2812	175.787237879817	348
6	2812	175.787237879817	349
6	2812	175.787237879817	350
6	2831	177.167089611237	351
6	2831	177.167089611237	352
6	2831	177.167089611237	353
6	2853	178.947534399268	354
6	2853	178.947534399268	355
6	2853	178.947534399268	356
6	2892	180.275579622266	357
6	2892	180.275579622266	358
6	2892	180.275579622266	359
6	2914	182.217901451837	360
6	2914	182.217901451837	361
6	2914	182.217901451837	362
6	2929	183.530966180246	363
6	2929	183.530966180246	364
6	2929	183.530966180246	365
6	2953	185.177622052278	366
6	2953	185.177622052278	367
6	2953	185.177622052278	368
6	2976	186.822238521231	369
6	2976	186.822238521231	370
6	2976	186.822238521231	371
6	2999	188.764470278427	372
6	2999	188.764470278427	373
6	2999	188.764470278427	374
6	3020	190.504170778897	375
6	3020	190.504170778897	376
6	3020	190.504170778897	377
6	3043	192.293826562815	378
6	3043	192.293826562815	379
6	3043	192.293826562815	380
6	3071	194.219440398271	381
6	3071	194.219440398271	382
6	3071	194.219440398271	383
6	3100	195.652737956313	384
6	3100	195.652737956313	385
6	3100	195.652737956313	386
6	3116	196.636396166197	387
6	3116	196.636396166197	388
6	3116	196.636396166197	389
6	3137	198.557027254367	390
6	3137	198.557027254367	391
6	3137	198.557027254367	392
6	3162	199.728217047669	393
6	3162	199.728217047669	394
6	3162	199.728217047669	395
6	3187	201.600849897002	396
6	3187	201.600849897002	397
6	3187	201.600849897002	398
6	3212	203.010825365072	399
6	3212	203.010825365072	400
6	3212	203.010825365072	401
6	3241	204.18918726737	402
6	3241	204.18918726737	403
6	3241	204.18918726737	404
6	3266	205.211134069959	405
6	3266	205.211134069959	406
6	3266	205.211134069959	407
6	3295	207.047258857962	408
6	3295	207.047258857962	409
6	3295	207.047258857962	410
6	3311	208.616622775033	411
6	3311	208.616622775033	412
6	3311	208.616622775033	413
6	3337	210.57658945132	414
6	3337	210.57658945132	415
6	3337	210.57658945132	416
6	3360	212.206403552273	417
6	3360	212.206403552273	418
6	3360	212.206403552273	419
6	3381	213.603444030027	420
6	3381	213.603444030027	421
6	3381	213.603444030027	422
6	3420	214.867482385467	423
6	3420	214.867482385467	424
6	3420	214.867482385467	425
6	3434	216.741853055026	426
6	3434	216.741853055026	427
6	3434	216.741853055026	428
6	3460	218.541189902204	429
6	3460	218.541189902204	430
6	3460	218.541189902204	431
6	3485	219.815166198296	432
6	3485	219.815166198296	433
6	3485	219.815166198296	434
6	3506	221.247928984664	435
6	3506	221.247928984664	436
6	3506	221.247928984664	437
6	3528	222.807524780337	438
6	3528	222.807524780337	439
6	3528	222.807524780337	440
6	3556	224.197423347879	441
6	3556	224.197423347879	442
6	3556	224.197423347879	443
6	3596	226.867046793512	444
6	3596	226.867046793512	445
6	3596	226.867046793512	446
6	3625	228.428411579696	447
6	3625	228.428411579696	448
6	3625	228.428411579696	449
6	3646	229.794126235522	450
6	3646	229.794126235522	451
6	3646	229.794126235522	452
6	3680	231.185544291487	453
6	3680	231.185544291487	454
6	3680	231.185544291487	455
6	3699	232.945232660991	456
6	3699	232.945232660991	457
6	3699	232.945232660991	458
6	3720	233.982458303001	459
6	3720	233.982458303001	460
6	3720	233.982458303001	461
6	3737	235.137173116049	462
6	3737	235.137173116049	463
6	3737	235.137173116049	464
6	3769	236.327317477799	465
6	3769	236.327317477799	466
6	3769	236.327317477799	467
6	3793	237.600856351366	468
6	3793	237.600856351366	469
6	3793	237.600856351366	470
6	3808	238.76880848204	471
6	3808	238.76880848204	472
6	3808	238.76880848204	473
6	3833	239.956578546018	474
6	3833	239.956578546018	475
6	3833	239.956578546018	476
7	23	0.227248898061	0
7	23	0.227248898061	1
7	33	2.107519791022	2
7	33	2.107519791022	3
7	54	3.974934803637	4
7	54	3.974934803637	5
7	88	5.842076455029	6
7	88	5.842076455029	7
7	99	7.594437990193	8
7	99	7.594437990193	9
7	124	9.502222766774	10
7	124	9.502222766774	11
7	153	10.67273628465	12
7	153	10.67273628465	13
7	160	12.129073526762	14
7	160	12.129073526762	15
7	185	13.862793482567	16
7	185	13.862793482567	17
7	205	15.657700875342	18
7	205	15.657700875342	19
7	227	17.17865522436	20
7	227	17.17865522436	21
7	252	18.923226011818	22
7	252	18.923226011818	23
7	277	20.789144121806	24
7	277	20.789144121806	25
7	310	22.424535774027	26
7	310	22.424535774027	27
7	320	23.427701416891	28
7	320	23.427701416891	29
7	345	24.47895422314	30
7	345	24.47895422314	31
7	371	26.464333986767	32
7	371	26.464333986767	33
7	396	27.82884284316	34
7	396	27.82884284316	35
7	421	28.842598768577	36
7	421	28.842598768577	37
7	451	30.658122282447	38
7	451	30.658122282447	39
7	468	31.980343730776	40
7	468	31.980343730776	41
7	501	33.793216153203	42
7	501	33.793216153203	43
7	518	35.369887879566	44
7	518	35.369887879566	45
7	542	36.9905198986	46
7	542	36.9905198986	47
7	584	38.054941988177	48
7	584	38.054941988177	49
7	592	39.679760517572	50
7	592	39.679760517572	51
7	617	41.315047785463	52
7	617	41.315047785463	53
7	643	42.545635460877	54
7	643	42.545635460877	55
7	667	43.614736159538	56
7	667	43.614736159538	57
7	693	44.82809265813	58
7	693	44.82809265813	59
7	731	45.910130810146	60
7	731	45.910130810146	61
7	750	47.362324117463	62
7	750	47.362324117463	63
7	768	48.76831458836	64
7	768	48.76831458836	65
7	793	50.762211241242	66
7	793	50.762211241242	67
7	818	51.849432905091	68
7	818	51.849432905091	69
7	856	54.127084363576	70
7	856	54.127084363576	71
7	881	56.080992337976	72
7	881	56.080992337976	73
7	907	57.230153890595	74
7	907	57.230153890595	75
7	928	58.402969921865	76
7	928	58.402969921865	77
7	954	60.264116994159	78
7	954	60.264116994159	79
7	982	61.290026230323	80
7	982	61.290026230323	81
7	1004	63.171371062206	82
7	1004	63.171371062206	83
7	1021	64.25937127201	84
7	1021	64.25937127201	85
7	1051	65.509879112735	86
7	1051	65.509879112735	87
7	1072	66.662475419912	88
7	1072	66.662475419912	89
7	1093	68.479520893591	90
7	1093	68.479520893591	91
7	1119	69.49160874736	92
7	1119	69.49160874736	93
7	1143	71.375374573335	94
7	1143	71.375374573335	95
7	1168	72.845097130724	96
7	1168	72.845097130724	97
7	1190	74.095113727407	98
7	1190	74.095113727407	99
7	1212	75.281815635354	100
7	1212	75.281815635354	101
7	1243	76.903654931335	102
7	1243	76.903654931335	103
7	1259	78.652665079724	104
7	1259	78.652665079724	105
7	1299	80.344659822856	106
7	1299	80.344659822856	107
7	1305	81.370834496745	108
7	1305	81.370834496745	109
7	1334	82.496475830736	110
7	1334	82.496475830736	111
7	1372	83.971336490463	112
7	1372	83.971336490463	113
7	1389	85.231533536007	114
7	1389	85.231533536007	115
7	1405	86.484674996397	116
7	1405	86.484674996397	117
7	1430	87.77688266386	118
7	1430	87.77688266386	119
7	1456	89.485785430989	120
7	1456	89.485785430989	121
7	1480	91.36558180167	122
7	1480	91.36558180167	123
7	1505	92.522916396175	124
7	1505	92.522916396175	125
7	1546	93.66962730988	126
7	1546	93.66962730988	127
7	1553	95.200180820158	128
7	1553	95.200180820158	129
7	1582	96.863744675368	130
7	1582	96.863744675368	131
7	1606	98.494640851767	132
7	1606	98.494640851767	133
7	1631	99.811498801125	134
7	1631	99.811498801125	135
7	1649	101.739501942314	136
7	1649	101.739501942314	137
7	1674	102.990716095811	138
7	1674	102.990716095811	139
7	1703	104.757136763543	140
7	1703	104.757136763543	141
7	1721	106.253437474966	142
7	1721	106.253437474966	143
7	1746	107.887309929052	144
7	1746	107.887309929052	145
7	1773	109.849556415966	146
7	1773	109.849556415966	147
7	1793	111.800552021856	148
7	1793	111.800552021856	149
7	1837	113.227030797276	150
7	1837	113.227030797276	151
7	1843	114.924420497474	152
7	1843	114.924420497474	153
7	1866	116.077111978552	154
7	1866	116.077111978552	155
7	1887	117.493934862039	156
7	1887	117.493934862039	157
7	1910	118.892233636564	158
7	1910	118.892233636564	159
7	1938	120.063200835418	160
7	1938	120.063200835418	161
7	1957	121.786528943991	162
7	1957	121.786528943991	163
7	1981	123.523502051784	164
7	1981	123.523502051784	165
7	2006	125.472931018738	166
7	2006	125.472931018738	167
7	2044	126.583846725141	168
7	2044	126.583846725141	169
7	2056	127.595422465658	170
7	2056	127.595422465658	171
7	2082	128.872906834287	172
7	2082	128.872906834287	173
7	2118	130.751162352413	174
7	2118	130.751162352413	175
7	2131	132.3702785902	176
7	2131	132.3702785902	177
7	2157	133.992936549226	178
7	2157	133.992936549226	179
7	2187	135.415614786811	180
7	2187	135.415614786811	181
7	2206	137.231343257171	182
7	2206	137.231343257171	183
7	2234	138.916020860969	184
7	2234	138.916020860969	185
7	2253	139.949881092095	186
7	2253	139.949881092095	187
7	2279	141.87645965959	188
7	2279	141.87645965959	189
7	2304	143.350479413236	190
7	2304	143.350479413236	191
7	2329	145.114867438097	192
7	2329	145.114867438097	193
7	2357	147.064220364228	194
7	2357	147.064220364228	195
7	2378	148.777617083775	196
7	2378	148.777617083775	197
7	2407	150.655687836461	198
7	2407	150.655687836461	199
7	2429	152.477625020779	200
7	2429	152.477625020779	201
7	2450	153.861253845059	202
7	2450	153.861253845059	203
7	2472	154.970068280955	204
7	2472	154.970068280955	205
7	2497	156.248217827982	206
7	2497	156.248217827982	207
7	2523	158.081914937006	208
7	2523	158.081914937006	209
7	2547	159.192512587178	210
7	2547	159.192512587178	211
7	2569	160.447796421946	212
7	2569	160.447796421946	213
7	2599	161.471112215641	214
7	2599	161.471112215641	215
7	2619	163.097190101829	216
7	2619	163.097190101829	217
7	2645	164.506406384865	218
7	2645	164.506406384865	219
7	2669	165.885890696803	220
7	2669	165.885890696803	221
7	2691	167.279706414168	222
7	2691	167.279706414168	223
7	2716	168.891697393413	224
7	2716	168.891697393413	225
7	2741	170.59649568029	226
7	2741	170.59649568029	227
7	2767	172.576799904329	228
7	2767	172.576799904329	229
7	2780	174.065529063905	230
7	2780	174.065529063905	231
7	2805	175.763777141575	232
7	2805	175.763777141575	233
7	2827	177.132402940479	234
7	2827	177.132402940479	235
7	2858	178.961825266272	236
7	2858	178.961825266272	237
7	2879	180.248867762746	238
7	2879	180.248867762746	239
7	2900	182.17747555358	240
7	2900	182.17747555358	241
7	2930	183.532073756711	242
7	2930	183.532073756711	243
7	2947	185.163641927199	244
7	2947	185.163641927199	245
7	2977	186.830207071066	246
7	2977	186.830207071066	247
7	2996	188.75292489009	248
7	2996	188.75292489009	249
7	3017	190.491424144346	250
7	3017	190.491424144346	251
7	3039	192.273824416545	252
7	3039	192.273824416545	253
7	3065	194.209393492807	254
7	3065	194.209393492807	255
7	3093	195.631410597146	256
7	3093	195.631410597146	257
7	3112	196.62650681049	258
7	3112	196.62650681049	259
7	3133	198.529390206633	260
7	3133	198.529390206633	261
7	3166	199.742854304592	262
7	3166	199.742854304592	263
7	3183	201.588192560642	264
7	3183	201.588192560642	265
7	3208	202.996294049816	266
7	3208	202.996294049816	267
7	3234	204.161063945689	268
7	3234	204.161063945689	269
7	3259	205.200069046706	270
7	3259	205.200069046706	271
7	3284	207.015985708903	272
7	3284	207.015985708903	273
7	3308	208.594107656286	274
7	3308	208.594107656286	275
7	3342	210.592105185817	276
7	3342	210.592105185817	277
7	3356	212.200941328935	278
7	3356	212.200941328935	279
7	3382	213.604195419499	280
7	3382	213.604195419499	281
7	3410	214.838845818183	282
7	3410	214.838845818183	283
7	3427	216.702696642589	284
7	3427	216.702696642589	285
7	3471	218.556669702572	286
7	3471	218.556669702572	287
7	3477	219.792326745243	288
7	3477	219.792326745243	289
7	3502	221.228039745866	290
7	3502	221.228039745866	291
7	3524	222.790025032977	292
7	3524	222.790025032977	293
7	3549	224.163194322577	294
7	3549	224.163194322577	295
7	3575	225.26723975329	296
7	3575	225.26723975329	297
7	3592	226.842313801777	298
7	3592	226.842313801777	299
7	3618	228.403062338759	300
7	3618	228.403062338759	301
7	3642	229.784090624651	302
7	3642	229.784090624651	303
7	3668	231.152830572891	304
7	3668	231.152830572891	305
7	3693	232.925873917842	306
7	3693	232.925873917842	307
7	3717	233.971295997151	308
7	3717	233.971295997151	309
7	3732	235.127970557645	310
7	3732	235.127970557645	311
7	3756	236.278029404794	312
7	3756	236.278029404794	313
7	3786	237.580607832096	314
7	3786	237.580607832096	315
7	3807	238.764512302914	316
7	3807	238.764512302914	317
7	3829	239.948372051251	318
7	3829	239.948372051251	319

