version 2
run General-0-20231008-06:23:24-15638
attr configname General
attr datetime 20231008-06:23:24
attr experiment General
attr inifile omnetpp.ini
attr iterationvars ""
attr iterationvarsf ""
attr measurement ""
attr network Network1
attr processid 15638
attr repetition 0
attr replication #0
attr resultdir results
attr runnumber 0
attr seedset 0
param Network1.node[*].transmissionTime "uniform(1s, 2s)"
param Network1.node[*].delayTime "uniform(0.01s, 0.2s)"
param Network1.node[*].processingTime exponential(0.01s)
param Network1.node[*].lossProbability 0.25
param Reliability.node[*].transmissionTime "uniform(1s, 2s)"
param Reliability.node[*].delayTime "uniform(0.01s, 0.2s)"
param Reliability.node[*].processingTime exponential(0.01s)
param Reliability.node[*].lossProbability 0.0

vector 0 Network1.node[0] txVector ETV
vector 1 Network1.node[1] txVector ETV
vector 2 Network1.node[3] txVector ETV
vector 3 Network1.node[2] txVector ETV
vector 4 Network1.node[4] txVector ETV
vector 5 Network1.node[5] rxVector ETV
0	1	0.114274565438	0
0	19	1.707119181827	1
0	33	3.184784293482	2
0	51	4.553025830844	3
0	53	6.135045622084	4
0	71	7.672418850315	5
0	89	8.822093714102	6
0	107	10.4752337463	7
0	109	12.128024065242	8
0	111	13.7630829423	9
0	129	15.758382507906	10
0	135	17.707953559308	11
0	153	19.33079965257	12
0	155	21.310386383048	13
0	173	22.669830852029	14
0	175	24.586553808608	15
0	193	26.507711420608	16
0	195	28.06053290477	17
0	213	29.225473365355	18
0	231	31.121511754654	19
0	249	32.796950831851	20
0	267	34.415759392856	21
0	285	35.508133279467	22
0	303	37.492175514884	23
0	305	38.529734899364	24
0	319	40.038050349643	25
0	333	42.020625306367	26
0	347	43.785537004312	27
0	365	44.956523597082	28
0	367	46.655621674685	29
0	385	48.648018070338	30
0	399	49.866767438203	31
0	417	51.354605144197	32
0	435	52.961650205152	33
0	453	54.607434804859	34
0	455	56.090843422413	35
0	473	57.879582843818	36
0	491	59.525847278843	37
0	497	60.988997475319	38
0	511	62.153956346754	39
0	529	63.903210763428	40
0	547	65.736248858114	41
0	549	67.191417675306	42
0	567	69.070287414201	43
0	585	71.044546082223	44
0	587	72.34238790402	45
0	605	73.743520245494	46
0	607	75.143019162424	47
0	625	76.444850036714	48
0	627	77.695472756473	49
0	645	79.372884580938	50
0	663	80.849361784829	51
0	665	81.935738765475	52
0	679	83.595778627162	53
0	697	85.487828289	54
0	715	86.902395767001	55
0	721	88.228080533519	56
0	739	89.357492871191	57
0	757	90.83071354039	58
0	775	92.334140966954	59
0	793	93.428598882705	60
0	811	94.872477562474	61
0	829	95.928443392813	62
0	847	97.50859511232	63
0	865	99.340114513254	64
0	883	100.974045465775	65
0	901	102.337206717888	66
0	907	103.458266594987	67
0	925	104.947775916969	68
0	943	106.272180778281	69
0	957	107.473698490839	70
0	975	109.181615952476	71
0	993	110.254050398785	72
0	1011	112.2241254743	73
0	1029	114.191246598568	74
0	1047	116.135954077197	75
0	1049	117.435597572783	76
0	1067	118.895817280589	77
0	1069	120.864681382273	78
0	1071	122.555575109628	79
0	1089	123.654991502483	80
0	1091	125.569782166118	81
0	1109	127.237067006137	82
0	1111	129.043736335197	83
0	1113	130.504743163781	84
0	1131	132.331567381583	85
0	1149	133.873696837649	86
0	1167	135.436479961807	87
0	1185	136.797785638673	88
0	1203	138.512993470374	89
0	1221	139.806137874564	90
0	1239	141.398218541248	91
0	1257	143.38285016858	92
0	1259	144.464907914242	93
0	1261	146.230178502929	94
0	1263	147.251867226167	95
0	1281	148.389118577429	96
0	1299	149.441626739531	97
0	1317	150.531859721598	98
0	1335	152.040250107954	99
0	1353	153.897005355526	100
0	1371	155.221088050241	101
0	1389	156.306321111117	102
0	1407	158.102640524349	103
0	1409	159.377215574338	104
0	1411	160.385905493126	105
0	1429	161.410850222531	106
0	1431	162.743041110766	107
0	1449	164.45596796468	108
0	1467	166.327070494258	109
0	1485	167.458973742166	110
0	1487	169.06796235785	111
0	1505	170.646973562037	112
0	1523	172.062581824215	113
0	1541	173.427044508124	114
0	1543	174.658114561189	115
0	1545	176.196983068327	116
0	1547	177.970018046985	117
0	1561	179.716602334364	118
0	1579	181.691592145323	119
0	1597	183.56934293181	120
0	1615	184.793809868706	121
0	1633	186.394003077954	122
0	1647	188.005330499573	123
0	1649	189.269663259931	124
0	1667	190.618020009561	125
0	1685	192.172623395533	126
0	1703	193.841229238393	127
0	1705	195.713531749169	128
0	1723	196.870185236758	129
0	1741	198.501056301952	130
0	1743	199.860166959078	131
0	1761	201.569064513394	132
0	1779	202.758818132184	133
0	1797	204.121706129597	134
0	1815	205.433192199409	135
0	1817	207.092460068023	136
0	1819	208.817454162134	137
0	1837	209.981942572246	138
0	1855	211.55597441605	139
0	1873	213.519950136158	140
0	1875	215.45224544903	141
0	1893	217.445246762212	142
0	1911	218.837677329162	143
0	1925	220.044973306207	144
0	1943	221.536564734614	145
0	1961	223.506642834133	146
0	1979	224.516326151871	147
0	1981	225.931358769619	148
0	1999	226.96341439112	149
0	2017	228.861370327733	150
0	2035	229.985659221503	151
0	2053	231.769773570671	152
0	2055	233.646058464506	153
0	2073	234.878441613251	154
0	2091	236.799633823884	155
0	2109	237.999163354132	156
0	2111	239.451562318336	157
1	3	0.142870607559	0
1	3	0.142870607559	1
1	3	0.142870607559	2
1	21	1.73384129383	3
1	21	1.73384129383	4
1	21	1.73384129383	5
1	35	3.226285992769	6
1	35	3.226285992769	7
1	35	3.226285992769	8
1	55	6.159259268885	9
1	55	6.159259268885	10
1	55	6.159259268885	11
1	73	7.684933269636	12
1	73	7.684933269636	13
1	73	7.684933269636	14
1	91	8.833967974762	15
1	91	8.833967974762	16
1	91	8.833967974762	17
1	113	13.781802100836	18
1	113	13.781802100836	19
1	113	13.781802100836	20
1	131	15.779245201715	21
1	131	15.779245201715	22
1	131	15.779245201715	23
1	137	17.729151702966	24
1	137	17.729151702966	25
1	137	17.729151702966	26
1	157	21.326942845892	27
1	157	21.326942845892	28
1	157	21.326942845892	29
1	177	24.597421513431	30
1	177	24.597421513431	31
1	177	24.597421513431	32
1	197	28.07515021373	33
1	197	28.07515021373	34
1	197	28.07515021373	35
1	215	29.245659952655	36
1	215	29.245659952655	37
1	215	29.245659952655	38
1	233	31.134385859415	39
1	233	31.134385859415	40
1	233	31.134385859415	41
1	251	32.813391878934	42
1	251	32.813391878934	43
1	251	32.813391878934	44
1	269	34.430129672994	45
1	269	34.430129672994	46
1	269	34.430129672994	47
1	287	35.521148938599	48
1	287	35.521148938599	49
1	287	35.521148938599	50
1	307	38.541560285383	51
1	307	38.541560285383	52
1	307	38.541560285383	53
1	321	40.052723075307	54
1	321	40.052723075307	55
1	321	40.052723075307	56
1	335	42.059471423888	57
1	335	42.059471423888	58
1	335	42.059471423888	59
1	349	43.801762977752	60
1	349	43.801762977752	61
1	349	43.801762977752	62
1	369	46.668731352735	63
1	369	46.668731352735	64
1	369	46.668731352735	65
1	387	48.666447858092	66
1	387	48.666447858092	67
1	387	48.666447858092	68
1	401	49.898054139148	69
1	401	49.898054139148	70
1	401	49.898054139148	71
1	419	51.377147176898	72
1	419	51.377147176898	73
1	419	51.377147176898	74
1	437	52.975575935434	75
1	437	52.975575935434	76
1	437	52.975575935434	77
1	457	56.103449823707	78
1	457	56.103449823707	79
1	457	56.103449823707	80
1	475	57.892002040266	81
1	475	57.892002040266	82
1	475	57.892002040266	83
1	493	59.554199912872	84
1	493	59.554199912872	85
1	493	59.554199912872	86
1	499	61.000330881552	87
1	499	61.000330881552	88
1	499	61.000330881552	89
1	513	62.177112609337	90
1	513	62.177112609337	91
1	513	62.177112609337	92
1	531	63.954770474384	93
1	531	63.954770474384	94
1	531	63.954770474384	95
1	551	67.208195695327	96
1	551	67.208195695327	97
1	551	67.208195695327	98
1	569	69.100114903247	99
1	569	69.100114903247	100
1	569	69.100114903247	101
1	589	72.353673706393	102
1	589	72.353673706393	103
1	589	72.353673706393	104
1	609	75.167945484066	105
1	609	75.167945484066	106
1	609	75.167945484066	107
1	629	77.72210241428	108
1	629	77.72210241428	109
1	629	77.72210241428	110
1	647	79.389577609658	111
1	647	79.389577609658	112
1	647	79.389577609658	113
1	667	81.948052975195	114
1	667	81.948052975195	115
1	667	81.948052975195	116
1	681	83.607211157376	117
1	681	83.607211157376	118
1	681	83.607211157376	119
1	699	85.499741249459	120
1	699	85.499741249459	121
1	699	85.499741249459	122
1	717	86.913985887169	123
1	717	86.913985887169	124
1	717	86.913985887169	125
1	723	88.246729914613	126
1	723	88.246729914613	127
1	723	88.246729914613	128
1	741	89.376172571011	129
1	741	89.376172571011	130
1	741	89.376172571011	131
1	759	90.871444292618	132
1	759	90.871444292618	133
1	759	90.871444292618	134
1	777	92.354181478693	135
1	777	92.354181478693	136
1	777	92.354181478693	137
1	795	93.443570975568	138
1	795	93.443570975568	139
1	795	93.443570975568	140
1	813	94.883382637175	141
1	813	94.883382637175	142
1	813	94.883382637175	143
1	831	95.953187615061	144
1	831	95.953187615061	145
1	831	95.953187615061	146
1	849	97.535046946591	147
1	849	97.535046946591	148
1	849	97.535046946591	149
1	867	99.376270922578	150
1	867	99.376270922578	151
1	867	99.376270922578	152
1	885	100.989112697914	153
1	885	100.989112697914	154
1	885	100.989112697914	155
1	903	102.349971445053	156
1	903	102.349971445053	157
1	903	102.349971445053	158
1	909	103.490478736819	159
1	909	103.490478736819	160
1	909	103.490478736819	161
1	927	104.969173871036	162
1	927	104.969173871036	163
1	927	104.969173871036	164
1	945	106.290133000294	165
1	945	106.290133000294	166
1	945	106.290133000294	167
1	959	107.4960452896	168
1	959	107.4960452896	169
1	959	107.4960452896	170
1	977	109.191810845406	171
1	977	109.191810845406	172
1	977	109.191810845406	173
1	995	110.264308679229	174
1	995	110.264308679229	175
1	995	110.264308679229	176
1	1013	112.235971633029	177
1	1013	112.235971633029	178
1	1013	112.235971633029	179
1	1031	114.223582997079	180
1	1031	114.223582997079	181
1	1031	114.223582997079	182
1	1051	117.44584590486	183
1	1051	117.44584590486	184
1	1051	117.44584590486	185
1	1073	122.568996856544	186
1	1073	122.568996856544	187
1	1073	122.568996856544	188
1	1093	125.585592252673	189
1	1093	125.585592252673	190
1	1093	125.585592252673	191
1	1115	130.522489301145	192
1	1115	130.522489301145	193
1	1115	130.522489301145	194
1	1133	132.342856168043	195
1	1133	132.342856168043	196
1	1133	132.342856168043	197
1	1151	133.907379198179	198
1	1151	133.907379198179	199
1	1151	133.907379198179	200
1	1169	135.470670475749	201
1	1169	135.470670475749	202
1	1169	135.470670475749	203
1	1187	136.815188160587	204
1	1187	136.815188160587	205
1	1187	136.815188160587	206
1	1205	138.525229460957	207
1	1205	138.525229460957	208
1	1205	138.525229460957	209
1	1223	139.821790427377	210
1	1223	139.821790427377	211
1	1223	139.821790427377	212
1	1241	141.414163201415	213
1	1241	141.414163201415	214
1	1241	141.414163201415	215
1	1265	147.264886776202	216
1	1265	147.264886776202	217
1	1265	147.264886776202	218
1	1283	148.408187208502	219
1	1283	148.408187208502	220
1	1283	148.408187208502	221
1	1301	149.461281097528	222
1	1301	149.461281097528	223
1	1301	149.461281097528	224
1	1319	150.576051086625	225
1	1319	150.576051086625	226
1	1319	150.576051086625	227
1	1337	152.055352821932	228
1	1337	152.055352821932	229
1	1337	152.055352821932	230
1	1355	153.910806545839	231
1	1355	153.910806545839	232
1	1355	153.910806545839	233
1	1373	155.242044548943	234
1	1373	155.242044548943	235
1	1373	155.242044548943	236
1	1391	156.364696985608	237
1	1391	156.364696985608	238
1	1391	156.364696985608	239
1	1413	160.397463684987	240
1	1413	160.397463684987	241
1	1413	160.397463684987	242
1	1433	162.75860881888	243
1	1433	162.75860881888	244
1	1433	162.75860881888	245
1	1451	164.476981925463	246
1	1451	164.476981925463	247
1	1451	164.476981925463	248
1	1469	166.339308381979	249
1	1469	166.339308381979	250
1	1469	166.339308381979	251
1	1489	169.079826854192	252
1	1489	169.079826854192	253
1	1489	169.079826854192	254
1	1507	170.684559175266	255
1	1507	170.684559175266	256
1	1507	170.684559175266	257
1	1525	172.083599443388	258
1	1525	172.083599443388	259
1	1525	172.083599443388	260
1	1549	177.992798909924	261
1	1549	177.992798909924	262
1	1549	177.992798909924	263
1	1563	179.730180861087	264
1	1563	179.730180861087	265
1	1563	179.730180861087	266
1	1581	181.707248374533	267
1	1581	181.707248374533	268
1	1581	181.707248374533	269
1	1599	183.579593577686	270
1	1599	183.579593577686	271
1	1599	183.579593577686	272
1	1617	184.814425401869	273
1	1617	184.814425401869	274
1	1617	184.814425401869	275
1	1635	186.408585823585	276
1	1635	186.408585823585	277
1	1635	186.408585823585	278
1	1651	189.280587135119	279
1	1651	189.280587135119	280
1	1651	189.280587135119	281
1	1669	190.628280949211	282
1	1669	190.628280949211	283
1	1669	190.628280949211	284
1	1687	192.190518161481	285
1	1687	192.190518161481	286
1	1687	192.190518161481	287
1	1707	195.735055859363	288
1	1707	195.735055859363	289
1	1707	195.735055859363	290
1	1725	196.892018631992	291
1	1725	196.892018631992	292
1	1725	196.892018631992	293
1	1745	199.879019127525	294
1	1745	199.879019127525	295
1	1745	199.879019127525	296
1	1763	201.586422446664	297
1	1763	201.586422446664	298
1	1763	201.586422446664	299
1	1781	202.769281027243	300
1	1781	202.769281027243	301
1	1781	202.769281027243	302
1	1799	204.153653800085	303
1	1799	204.153653800085	304
1	1799	204.153653800085	305
1	1821	208.841246315641	306
1	1821	208.841246315641	307
1	1821	208.841246315641	308
1	1839	210.020937558783	309
1	1839	210.020937558783	310
1	1839	210.020937558783	311
1	1857	211.579492884619	312
1	1857	211.579492884619	313
1	1857	211.579492884619	314
1	1877	215.464043089912	315
1	1877	215.464043089912	316
1	1877	215.464043089912	317
1	1895	217.460221461986	318
1	1895	217.460221461986	319
1	1895	217.460221461986	320
1	1913	218.858612522933	321
1	1913	218.858612522933	322
1	1913	218.858612522933	323
1	1927	220.074222664584	324
1	1927	220.074222664584	325
1	1927	220.074222664584	326
1	1945	221.552436788327	327
1	1945	221.552436788327	328
1	1945	221.552436788327	329
1	1963	223.518108792059	330
1	1963	223.518108792059	331
1	1963	223.518108792059	332
1	1983	225.941988114438	333
1	1983	225.941988114438	334
1	1983	225.941988114438	335
1	2001	226.99870570552	336
1	2001	226.99870570552	337
1	2001	226.99870570552	338
1	2019	228.873897231502	339
1	2019	228.873897231502	340
1	2019	228.873897231502	341
1	2037	229.998290830469	342
1	2037	229.998290830469	343
1	2037	229.998290830469	344
1	2057	233.657436114941	345
1	2057	233.657436114941	346
1	2057	233.657436114941	347
1	2075	234.894423786999	348
1	2075	234.894423786999	349
1	2075	234.894423786999	350
1	2093	236.816419019369	351
1	2093	236.816419019369	352
1	2093	236.816419019369	353
1	2113	239.48808022459	354
1	2113	239.48808022459	355
1	2113	239.48808022459	356
2	7	0.158381092426	0
2	7	0.158381092426	1
2	7	0.158381092426	2
2	29	1.769823834688	3
2	29	1.769823834688	4
2	29	1.769823834688	5
2	39	3.256694914928	6
2	39	3.256694914928	7
2	39	3.256694914928	8
2	59	6.175676215905	9
2	59	6.175676215905	10
2	59	6.175676215905	11
2	77	7.706384659183	12
2	77	7.706384659183	13
2	77	7.706384659183	14
2	96	8.847757594405	15
2	96	8.847757594405	16
2	96	8.847757594405	17
2	117	13.794604870921	18
2	117	13.794604870921	19
2	117	13.794604870921	20
2	141	17.74547506893	21
2	141	17.74547506893	22
2	141	17.74547506893	23
2	162	21.34229168965	24
2	162	21.34229168965	25
2	162	21.34229168965	26
2	189	24.633856453673	27
2	189	24.633856453673	28
2	189	24.633856453673	29
2	201	28.093581044051	30
2	201	28.093581044051	31
2	201	28.093581044051	32
2	219	29.26158619293	33
2	219	29.26158619293	34
2	219	29.26158619293	35
2	237	31.156179688751	36
2	237	31.156179688751	37
2	237	31.156179688751	38
2	256	32.834185080921	39
2	256	32.834185080921	40
2	256	32.834185080921	41
2	277	34.464316575361	42
2	277	34.464316575361	43
2	277	34.464316575361	44
2	291	35.532205065035	45
2	291	35.532205065035	46
2	291	35.532205065035	47
2	311	38.568027476396	48
2	311	38.568027476396	49
2	311	38.568027476396	50
2	340	42.076832734888	51
2	340	42.076832734888	52
2	340	42.076832734888	53
2	358	43.838085166377	54
2	358	43.838085166377	55
2	358	43.838085166377	56
2	374	46.687645138504	57
2	374	46.687645138504	58
2	374	46.687645138504	59
2	391	48.679027985731	60
2	391	48.679027985731	61
2	391	48.679027985731	62
2	405	49.910033816501	63
2	405	49.910033816501	64
2	405	49.910033816501	65
2	424	51.398026221234	66
2	424	51.398026221234	67
2	424	51.398026221234	68
2	449	53.021488172781	69
2	449	53.021488172781	70
2	449	53.021488172781	71
2	461	56.115849058901	72
2	461	56.115849058901	73
2	461	56.115849058901	74
2	479	57.918482801998	75
2	479	57.918482801998	76
2	479	57.918482801998	77
2	517	62.18945916783	78
2	517	62.18945916783	79
2	517	62.18945916783	80
2	543	64.021539517665	81
2	543	64.021539517665	82
2	543	64.021539517665	83
2	555	67.228150331761	84
2	555	67.228150331761	85
2	555	67.228150331761	86
2	573	69.116622876671	87
2	573	69.116622876671	88
2	573	69.116622876671	89
2	598	72.383492609804	90
2	598	72.383492609804	91
2	598	72.383492609804	92
2	613	75.178494557792	93
2	613	75.178494557792	94
2	613	75.178494557792	95
2	634	77.740252597589	96
2	634	77.740252597589	97
2	634	77.740252597589	98
2	652	79.411075023535	99
2	652	79.411075023535	100
2	652	79.411075023535	101
2	671	81.961056225998	102
2	671	81.961056225998	103
2	671	81.961056225998	104
2	685	83.617667537871	105
2	685	83.617667537871	106
2	685	83.617667537871	107
2	704	85.515369501477	108
2	704	85.515369501477	109
2	704	85.515369501477	110
2	727	88.280870078918	111
2	727	88.280870078918	112
2	727	88.280870078918	113
2	749	89.412060354788	114
2	749	89.412060354788	115
2	749	89.412060354788	116
2	768	90.914745561349	117
2	768	90.914745561349	118
2	768	90.914745561349	119
2	782	92.369698514819	120
2	782	92.369698514819	121
2	782	92.369698514819	122
2	800	93.458700245486	123
2	800	93.458700245486	124
2	800	93.458700245486	125
2	817	94.911678058734	126
2	817	94.911678058734	127
2	817	94.911678058734	128
2	836	95.964414765134	129
2	836	95.964414765134	130
2	836	95.964414765134	131
2	853	97.54572228816	132
2	853	97.54572228816	133
2	853	97.54572228816	134
2	872	99.394360719529	135
2	872	99.394360719529	136
2	872	99.394360719529	137
2	890	101.003397773956	138
2	890	101.003397773956	139
2	890	101.003397773956	140
2	913	103.50108002051	141
2	913	103.50108002051	142
2	913	103.50108002051	143
2	932	104.985139370205	144
2	932	104.985139370205	145
2	932	104.985139370205	146
2	949	106.314026585363	147
2	949	106.314026585363	148
2	949	106.314026585363	149
2	963	107.507698219723	150
2	963	107.507698219723	151
2	963	107.507698219723	152
2	989	109.255762717228	153
2	989	109.255762717228	154
2	989	109.255762717228	155
2	999	110.278024836777	156
2	999	110.278024836777	157
2	999	110.278024836777	158
2	1018	112.251879985233	159
2	1018	112.251879985233	160
2	1018	112.251879985233	161
2	1036	114.244860601415	162
2	1036	114.244860601415	163
2	1036	114.244860601415	164
2	1055	117.456783458736	165
2	1055	117.456783458736	166
2	1055	117.456783458736	167
2	1081	122.608728939939	168
2	1081	122.608728939939	169
2	1081	122.608728939939	170
2	1097	125.59965638134	171
2	1097	125.59965638134	172
2	1097	125.59965638134	173
2	1119	130.542134298763	174
2	1119	130.542134298763	175
2	1119	130.542134298763	176
2	1142	132.387366269337	177
2	1142	132.387366269337	178
2	1142	132.387366269337	179
2	1155	133.923292226035	180
2	1155	133.923292226035	181
2	1155	133.923292226035	182
2	1174	135.481288637235	183
2	1174	135.481288637235	184
2	1174	135.481288637235	185
2	1195	136.901899356162	186
2	1195	136.901899356162	187
2	1195	136.901899356162	188
2	1209	138.541723568225	189
2	1209	138.541723568225	190
2	1209	138.541723568225	191
2	1227	139.832808583797	192
2	1227	139.832808583797	193
2	1227	139.832808583797	194
2	1246	141.440932548745	195
2	1246	141.440932548745	196
2	1246	141.440932548745	197
2	1273	147.300850243606	198
2	1273	147.300850243606	199
2	1273	147.300850243606	200
2	1287	148.422972974213	201
2	1287	148.422972974213	202
2	1287	148.422972974213	203
2	1309	149.484649154607	204
2	1309	149.484649154607	205
2	1309	149.484649154607	206
2	1323	150.586455666182	207
2	1323	150.586455666182	208
2	1323	150.586455666182	209
2	1345	152.081173267615	210
2	1345	152.081173267615	211
2	1345	152.081173267615	212
2	1360	153.926004765288	213
2	1360	153.926004765288	214
2	1360	153.926004765288	215
2	1377	155.274052717687	216
2	1377	155.274052717687	217
2	1377	155.274052717687	218
2	1396	156.381998205811	219
2	1396	156.381998205811	220
2	1396	156.381998205811	221
2	1425	160.444759191568	222
2	1425	160.444759191568	223
2	1425	160.444759191568	224
2	1445	162.809110056676	225
2	1445	162.809110056676	226
2	1445	162.809110056676	227
2	1455	164.512003505288	228
2	1455	164.512003505288	229
2	1455	164.512003505288	230
2	1478	166.364298242236	231
2	1478	166.364298242236	232
2	1478	166.364298242236	233
2	1493	169.102542954215	234
2	1493	169.102542954215	235
2	1493	169.102542954215	236
2	1519	170.739391883349	237
2	1519	170.739391883349	238
2	1519	170.739391883349	239
2	1530	172.1226085338	240
2	1530	172.1226085338	241
2	1530	172.1226085338	242
2	1557	178.026500951669	243
2	1557	178.026500951669	244
2	1557	178.026500951669	245
2	1567	179.753159226778	246
2	1567	179.753159226778	247
2	1567	179.753159226778	248
2	1585	181.718498630021	249
2	1585	181.718498630021	250
2	1585	181.718498630021	251
2	1603	183.615821832905	252
2	1603	183.615821832905	253
2	1603	183.615821832905	254
2	1622	184.8341451658	255
2	1622	184.8341451658	256
2	1622	184.8341451658	257
2	1639	186.425273810427	258
2	1639	186.425273810427	259
2	1639	186.425273810427	260
2	1655	189.306827239557	261
2	1655	189.306827239557	262
2	1655	189.306827239557	263
2	1673	190.639115429387	264
2	1673	190.639115429387	265
2	1673	190.639115429387	266
2	1691	192.213734062543	267
2	1691	192.213734062543	268
2	1691	192.213734062543	269
2	1711	195.76670213112	270
2	1711	195.76670213112	271
2	1711	195.76670213112	272
2	1729	196.908499335589	273
2	1729	196.908499335589	274
2	1729	196.908499335589	275
2	1753	199.907246538237	276
2	1753	199.907246538237	277
2	1753	199.907246538237	278
2	1775	201.636261272618	279
2	1775	201.636261272618	280
2	1775	201.636261272618	281
2	1786	202.787670760072	282
2	1786	202.787670760072	283
2	1786	202.787670760072	284
2	1803	204.166029455514	285
2	1803	204.166029455514	286
2	1803	204.166029455514	287
2	1829	208.908971152614	288
2	1829	208.908971152614	289
2	1829	208.908971152614	290
2	1843	210.037572775632	291
2	1843	210.037572775632	292
2	1843	210.037572775632	293
2	1861	211.599832942846	294
2	1861	211.599832942846	295
2	1861	211.599832942846	296
2	1882	215.476622542205	297
2	1882	215.476622542205	298
2	1882	215.476622542205	299
2	1899	217.472676156807	300
2	1899	217.472676156807	301
2	1899	217.472676156807	302
2	1918	218.890635207387	303
2	1918	218.890635207387	304
2	1918	218.890635207387	305
2	1931	220.117772308378	306
2	1931	220.117772308378	307
2	1931	220.117772308378	308
2	1949	221.564634025782	309
2	1949	221.564634025782	310
2	1949	221.564634025782	311
2	1972	223.553657599956	312
2	1972	223.553657599956	313
2	1972	223.553657599956	314
2	1988	225.965338545281	315
2	1988	225.965338545281	316
2	1988	225.965338545281	317
2	2006	227.021042138296	318
2	2006	227.021042138296	319
2	2006	227.021042138296	320
2	2024	228.887287609779	321
2	2024	228.887287609779	322
2	2024	228.887287609779	323
2	2042	230.017979834498	324
2	2042	230.017979834498	325
2	2042	230.017979834498	326
2	2061	233.668141338587	327
2	2061	233.668141338587	328
2	2061	233.668141338587	329
2	2084	234.931739139415	330
2	2084	234.931739139415	331
2	2084	234.931739139415	332
2	2105	236.861223333573	333
2	2105	236.861223333573	334
2	2105	236.861223333573	335
2	2117	239.504645971015	336
2	2117	239.504645971015	337
2	2117	239.504645971015	338
3	8	0.160742618959	0
3	8	0.160742618959	1
3	8	0.160742618959	2
3	25	1.752235622359	3
3	25	1.752235622359	4
3	25	1.752235622359	5
3	44	3.282747310499	6
3	44	3.282747310499	7
3	44	3.282747310499	8
3	67	6.211469602658	9
3	67	6.211469602658	10
3	67	6.211469602658	11
3	82	7.723712419849	12
3	82	7.723712419849	13
3	82	7.723712419849	14
3	95	8.845348261646	15
3	95	8.845348261646	16
3	95	8.845348261646	17
3	118	13.798081516646	18
3	118	13.798081516646	19
3	118	13.798081516646	20
3	145	17.776642017562	21
3	145	17.776642017562	22
3	145	17.776642017562	23
3	161	21.340769855381	24
3	161	21.340769855381	25
3	161	21.340769855381	26
3	181	24.611257115572	27
3	181	24.611257115572	28
3	181	24.611257115572	29
3	205	28.116868622789	30
3	205	28.116868622789	31
3	205	28.116868622789	32
3	224	29.286182769224	33
3	224	29.286182769224	34
3	224	29.286182769224	35
3	238	31.165734163915	36
3	238	31.165734163915	37
3	238	31.165734163915	38
3	255	32.826981151093	39
3	255	32.826981151093	40
3	255	32.826981151093	41
3	273	34.44867047035	42
3	273	34.44867047035	43
3	273	34.44867047035	44
3	295	35.543319133552	45
3	295	35.543319133552	46
3	295	35.543319133552	47
3	312	38.570399574249	48
3	312	38.570399574249	49
3	312	38.570399574249	50
3	325	40.075526417345	51
3	325	40.075526417345	52
3	325	40.075526417345	53
3	339	42.07135437364	54
3	339	42.07135437364	55
3	339	42.07135437364	56
3	353	43.815999548766	57
3	353	43.815999548766	58
3	353	43.815999548766	59
3	373	46.686402149281	60
3	373	46.686402149281	61
3	373	46.686402149281	62
3	392	48.683190303788	63
3	392	48.683190303788	64
3	392	48.683190303788	65
3	406	49.912798302051	66
3	406	49.912798302051	67
3	406	49.912798302051	68
3	423	51.389592087118	69
3	423	51.389592087118	70
3	423	51.389592087118	71
3	441	52.995490978363	72
3	441	52.995490978363	73
3	441	52.995490978363	74
3	462	56.116379338292	75
3	462	56.116379338292	76
3	462	56.116379338292	77
3	483	57.929733127897	78
3	483	57.929733127897	79
3	483	57.929733127897	80
3	503	61.038537241036	81
3	503	61.038537241036	82
3	503	61.038537241036	83
3	522	62.2022144472	84
3	522	62.2022144472	85
3	522	62.2022144472	86
3	535	63.973599279834	87
3	535	63.973599279834	88
3	535	63.973599279834	89
3	556	67.234250282958	90
3	556	67.234250282958	91
3	556	67.234250282958	92
3	577	69.150194399796	93
3	577	69.150194399796	94
3	577	69.150194399796	95
3	593	72.36470339003	96
3	593	72.36470339003	97
3	593	72.36470339003	98
3	614	75.17936673918	99
3	614	75.17936673918	100
3	614	75.17936673918	101
3	633	77.737558991428	102
3	633	77.737558991428	103
3	633	77.737558991428	104
3	651	79.405668254211	105
3	651	79.405668254211	106
3	651	79.405668254211	107
3	675	81.973077103132	108
3	675	81.973077103132	109
3	675	81.973077103132	110
3	686	83.623370350214	111
3	686	83.623370350214	112
3	686	83.623370350214	113
3	703	85.510101277756	114
3	703	85.510101277756	115
3	703	85.510101277756	116
3	735	88.337949761644	117
3	735	88.337949761644	118
3	735	88.337949761644	119
3	745	89.400310404306	120
3	745	89.400310404306	121
3	745	89.400310404306	122
3	763	90.887554868231	123
3	763	90.887554868231	124
3	763	90.887554868231	125
3	781	92.364829135621	126
3	781	92.364829135621	127
3	781	92.364829135621	128
3	799	93.455619498239	129
3	799	93.455619498239	130
3	799	93.455619498239	131
3	821	94.921835349972	132
3	821	94.921835349972	133
3	821	94.921835349972	134
3	835	95.963308707512	135
3	835	95.963308707512	136
3	835	95.963308707512	137
3	861	97.59052518511	138
3	861	97.59052518511	139
3	861	97.59052518511	140
3	871	99.391788943794	141
3	871	99.391788943794	142
3	871	99.391788943794	143
3	889	101.001760520647	144
3	889	101.001760520647	145
3	889	101.001760520647	146
3	917	103.512183094119	147
3	917	103.512183094119	148
3	917	103.512183094119	149
3	931	104.981059518279	150
3	931	104.981059518279	151
3	931	104.981059518279	152
3	953	106.328302117594	153
3	953	106.328302117594	154
3	953	106.328302117594	155
3	964	107.509509622875	156
3	964	107.509509622875	157
3	964	107.509509622875	158
3	981	109.205024248435	159
3	981	109.205024248435	160
3	981	109.205024248435	161
3	1000	110.281358172443	162
3	1000	110.281358172443	163
3	1000	110.281358172443	164
3	1017	112.248897139041	165
3	1017	112.248897139041	166
3	1017	112.248897139041	167
3	1035	114.237763913668	168
3	1035	114.237763913668	169
3	1035	114.237763913668	170
3	1059	117.481370669795	171
3	1059	117.481370669795	172
3	1059	117.481370669795	173
3	1077	122.590142966574	174
3	1077	122.590142966574	175
3	1077	122.590142966574	176
3	1098	125.602721817464	177
3	1098	125.602721817464	178
3	1098	125.602721817464	179
3	1123	130.554289505617	180
3	1123	130.554289505617	181
3	1123	130.554289505617	182
3	1137	132.370569701236	183
3	1137	132.370569701236	184
3	1137	132.370569701236	185
3	1160	133.93912152725	186
3	1160	133.93912152725	187
3	1160	133.93912152725	188
3	1173	135.481074691526	189
3	1173	135.481074691526	190
3	1173	135.481074691526	191
3	1191	136.887147261774	192
3	1191	136.887147261774	193
3	1191	136.887147261774	194
3	1210	138.54457526512	195
3	1210	138.54457526512	196
3	1210	138.54457526512	197
3	1228	139.833222660092	198
3	1228	139.833222660092	199
3	1228	139.833222660092	200
3	1245	141.434312790999	201
3	1245	141.434312790999	202
3	1245	141.434312790999	203
3	1269	147.289718510282	204
3	1269	147.289718510282	205
3	1269	147.289718510282	206
3	1288	148.423292160129	207
3	1288	148.423292160129	208
3	1288	148.423292160129	209
3	1305	149.474045974369	210
3	1305	149.474045974369	211
3	1305	149.474045974369	212
3	1327	150.599619940094	213
3	1327	150.599619940094	214
3	1327	150.599619940094	215
3	1341	152.070447107034	216
3	1341	152.070447107034	217
3	1341	152.070447107034	218
3	1359	153.925999083088	219
3	1359	153.925999083088	220
3	1359	153.925999083088	221
3	1385	155.304239355286	222
3	1385	155.304239355286	223
3	1385	155.304239355286	224
3	1395	156.37489006666	225
3	1395	156.37489006666	226
3	1395	156.37489006666	227
3	1417	160.408142243767	228
3	1417	160.408142243767	229
3	1417	160.408142243767	230
3	1437	162.772908040907	231
3	1437	162.772908040907	232
3	1437	162.772908040907	233
3	1459	164.526537639471	234
3	1459	164.526537639471	235
3	1459	164.526537639471	236
3	1473	166.352556550025	237
3	1473	166.352556550025	238
3	1473	166.352556550025	239
3	1494	169.111188793455	240
3	1494	169.111188793455	241
3	1494	169.111188793455	242
3	1511	170.715547359552	243
3	1511	170.715547359552	244
3	1511	170.715547359552	245
3	1529	172.114858749087	246
3	1529	172.114858749087	247
3	1529	172.114858749087	248
3	1553	178.008833697848	249
3	1553	178.008833697848	250
3	1553	178.008833697848	251
3	1571	179.764859797666	252
3	1571	179.764859797666	253
3	1571	179.764859797666	254
3	1586	181.726322503732	255
3	1586	181.726322503732	256
3	1586	181.726322503732	257
3	1607	183.630560448695	258
3	1607	183.630560448695	259
3	1607	183.630560448695	260
3	1621	184.828848113759	261
3	1621	184.828848113759	262
3	1621	184.828848113759	263
3	1640	186.426070465934	264
3	1640	186.426070465934	265
3	1640	186.426070465934	266
3	1656	189.310130222836	267
3	1656	189.310130222836	268
3	1656	189.310130222836	269
3	1677	190.652581099478	270
3	1677	190.652581099478	271
3	1677	190.652581099478	272
3	1692	192.221912936711	273
3	1692	192.221912936711	274
3	1692	192.221912936711	275
3	1716	195.783309282054	276
3	1716	195.783309282054	277
3	1716	195.783309282054	278
3	1733	196.920098691628	279
3	1733	196.920098691628	280
3	1733	196.920098691628	281
3	1749	199.892825036518	282
3	1749	199.892825036518	283
3	1749	199.892825036518	284
3	1767	201.611526494851	285
3	1767	201.611526494851	286
3	1767	201.611526494851	287
3	1785	202.785229789802	288
3	1785	202.785229789802	289
3	1785	202.785229789802	290
3	1804	204.16793385159	291
3	1804	204.16793385159	292
3	1804	204.16793385159	293
3	1825	208.890612376939	294
3	1825	208.890612376939	295
3	1825	208.890612376939	296
3	1844	210.038221698537	297
3	1844	210.038221698537	298
3	1844	210.038221698537	299
3	1866	211.613883675138	300
3	1866	211.613883675138	301
3	1866	211.613883675138	302
3	1881	215.475555784362	303
3	1881	215.475555784362	304
3	1881	215.475555784362	305
3	1904	217.487106240266	306
3	1904	217.487106240266	307
3	1904	217.487106240266	308
3	1917	218.887827062293	309
3	1917	218.887827062293	310
3	1917	218.887827062293	311
3	1935	220.140859259975	312
3	1935	220.140859259975	313
3	1935	220.140859259975	314
3	1953	221.64804697092	315
3	1953	221.64804697092	316
3	1953	221.64804697092	317
3	1967	223.536299837493	318
3	1967	223.536299837493	319
3	1967	223.536299837493	320
3	1987	225.959057796079	321
3	1987	225.959057796079	322
3	1987	225.959057796079	323
3	2005	227.015165025056	324
3	2005	227.015165025056	325
3	2005	227.015165025056	326
3	2023	228.885034211786	327
3	2023	228.885034211786	328
3	2023	228.885034211786	329
3	2041	230.010980535752	330
3	2041	230.010980535752	331
3	2041	230.010980535752	332
3	2062	233.673812432134	333
3	2062	233.673812432134	334
3	2062	233.673812432134	335
3	2079	234.911885236969	336
3	2079	234.911885236969	337
3	2079	234.911885236969	338
3	2097	236.832868777746	339
3	2097	236.832868777746	340
3	2097	236.832868777746	341
3	2125	239.538815229372	342
3	2125	239.538815229372	343
3	2125	239.538815229372	344
4	15	0.174136284395	0
4	15	0.174136284395	1
4	15	0.174136284395	2
4	43	3.272884209524	3
4	43	3.272884209524	4
4	43	3.272884209524	5
4	63	6.199029117751	6
4	63	6.199029117751	7
4	63	6.199029117751	8
4	81	7.72212998325	9
4	81	7.72212998325	10
4	81	7.72212998325	11
4	103	8.859279387219	12
4	103	8.859279387219	13
4	103	8.859279387219	14
4	122	13.805774425019	15
4	122	13.805774425019	16
4	122	13.805774425019	17
4	149	17.800084470284	18
4	149	17.800084470284	19
4	149	17.800084470284	20
4	169	21.372324094875	21
4	169	21.372324094875	22
4	169	21.372324094875	23
4	185	24.622670422708	24
4	185	24.622670422708	25
4	185	24.622670422708	26
4	209	28.136332475828	27
4	209	28.136332475828	28
4	209	28.136332475828	29
4	223	29.283608578602	30
4	223	29.283608578602	31
4	223	29.283608578602	32
4	242	31.17313768336	33
4	242	31.17313768336	34
4	242	31.17313768336	35
4	260	32.841817507959	36
4	260	32.841817507959	37
4	260	32.841817507959	38
4	278	34.469228966437	39
4	278	34.469228966437	40
4	278	34.469228966437	41
4	299	35.554731140284	42
4	299	35.554731140284	43
4	299	35.554731140284	44
4	329	40.122626023264	45
4	329	40.122626023264	46
4	329	40.122626023264	47
4	357	43.835079189039	48
4	357	43.835079189039	49
4	357	43.835079189039	50
4	381	46.72978149262	51
4	381	46.72978149262	52
4	381	46.72978149262	53
4	410	49.920729993212	54
4	410	49.920729993212	55
4	410	49.920729993212	56
4	428	51.401068047447	57
4	428	51.401068047447	58
4	428	51.401068047447	59
4	445	53.008686724912	60
4	445	53.008686724912	61
4	445	53.008686724912	62
4	466	56.126109036353	63
4	466	56.126109036353	64
4	466	56.126109036353	65
4	484	57.935768040425	66
4	484	57.935768040425	67
4	484	57.935768040425	68
4	507	61.062346871993	69
4	507	61.062346871993	70
4	507	61.062346871993	71
4	521	62.200516039571	72
4	521	62.200516039571	73
4	521	62.200516039571	74
4	539	63.99024735733	75
4	539	63.99024735733	76
4	539	63.99024735733	77
4	560	67.241617864799	78
4	560	67.241617864799	79
4	560	67.241617864799	80
4	581	69.164792312974	81
4	581	69.164792312974	82
4	581	69.164792312974	83
4	597	72.37891332301	84
4	597	72.37891332301	85
4	597	72.37891332301	86
4	621	75.20408878076	87
4	621	75.20408878076	88
4	621	75.20408878076	89
4	641	77.752323777254	90
4	641	77.752323777254	91
4	641	77.752323777254	92
4	659	79.434816676787	93
4	659	79.434816676787	94
4	659	79.434816676787	95
4	690	83.62846832643	96
4	690	83.62846832643	97
4	690	83.62846832643	98
4	708	85.52184322936	99
4	708	85.52184322936	100
4	708	85.52184322936	101
4	731	88.306983398909	102
4	731	88.306983398909	103
4	731	88.306983398909	104
4	750	89.413055039526	105
4	750	89.413055039526	106
4	750	89.413055039526	107
4	767	90.906129219257	108
4	767	90.906129219257	109
4	767	90.906129219257	110
4	789	92.387837509896	111
4	789	92.387837509896	112
4	789	92.387837509896	113
4	807	93.477022287008	114
4	807	93.477022287008	115
4	807	93.477022287008	116
4	822	94.927278142467	117
4	822	94.927278142467	118
4	822	94.927278142467	119
4	843	95.976114466774	120
4	843	95.976114466774	121
4	843	95.976114466774	122
4	857	97.559124660356	123
4	857	97.559124660356	124
4	857	97.559124660356	125
4	879	99.419080140171	126
4	879	99.419080140171	127
4	879	99.419080140171	128
4	897	101.014734255926	129
4	897	101.014734255926	130
4	897	101.014734255926	131
4	921	103.525363639571	132
4	921	103.525363639571	133
4	921	103.525363639571	134
4	939	105.012771777093	135
4	939	105.012771777093	136
4	939	105.012771777093	137
4	968	107.519105671277	138
4	968	107.519105671277	139
4	968	107.519105671277	140
4	985	109.237731349509	141
4	985	109.237731349509	142
4	985	109.237731349509	143
4	1007	110.295468619391	144
4	1007	110.295468619391	145
4	1007	110.295468619391	146
4	1025	112.266771069339	147
4	1025	112.266771069339	148
4	1025	112.266771069339	149
4	1040	114.250947843829	150
4	1040	114.250947843829	151
4	1040	114.250947843829	152
4	1063	117.49556546303	153
4	1063	117.49556546303	154
4	1063	117.49556546303	155
4	1085	122.654513957197	156
4	1085	122.654513957197	157
4	1085	122.654513957197	158
4	1102	125.61067939915	159
4	1102	125.61067939915	160
4	1102	125.61067939915	161
4	1127	130.591548885609	162
4	1127	130.591548885609	163
4	1127	130.591548885609	164
4	1141	132.381803795951	165
4	1141	132.381803795951	166
4	1141	132.381803795951	167
4	1159	133.935038504	168
4	1159	133.935038504	169
4	1159	133.935038504	170
4	1181	135.496993697116	171
4	1181	135.496993697116	172
4	1181	135.496993697116	173
4	1196	136.903508296318	174
4	1196	136.903508296318	175
4	1196	136.903508296318	176
4	1214	138.554447080489	177
4	1214	138.554447080489	178
4	1214	138.554447080489	179
4	1235	139.851749642678	180
4	1235	139.851749642678	181
4	1235	139.851749642678	182
4	1253	141.452615397467	183
4	1253	141.452615397467	184
4	1253	141.452615397467	185
4	1274	147.300966441205	186
4	1274	147.300966441205	187
4	1274	147.300966441205	188
4	1295	148.444522719549	189
4	1295	148.444522719549	190
4	1295	148.444522719549	191
4	1313	149.503677207265	192
4	1313	149.503677207265	193
4	1313	149.503677207265	194
4	1328	150.601627335453	195
4	1328	150.601627335453	196
4	1328	150.601627335453	197
4	1346	152.089979966346	198
4	1346	152.089979966346	199
4	1346	152.089979966346	200
4	1367	153.948514172658	201
4	1367	153.948514172658	202
4	1367	153.948514172658	203
4	1381	155.28434896521	204
4	1381	155.28434896521	205
4	1381	155.28434896521	206
4	1403	156.397638581185	207
4	1403	156.397638581185	208
4	1403	156.397638581185	209
4	1421	160.419911050828	210
4	1421	160.419911050828	211
4	1421	160.419911050828	212
4	1441	162.796811934179	213
4	1441	162.796811934179	214
4	1441	162.796811934179	215
4	1460	164.528956263098	216
4	1460	164.528956263098	217
4	1460	164.528956263098	218
4	1477	166.363805158603	219
4	1477	166.363805158603	220
4	1477	166.363805158603	221
4	1498	169.119628314969	222
4	1498	169.119628314969	223
4	1498	169.119628314969	224
4	1515	170.725561202678	225
4	1515	170.725561202678	226
4	1515	170.725561202678	227
4	1534	172.130039039658	228
4	1534	172.130039039658	229
4	1534	172.130039039658	230
4	1572	179.76678613814	231
4	1572	179.76678613814	232
4	1572	179.76678613814	233
4	1593	181.75546397856	234
4	1593	181.75546397856	235
4	1593	181.75546397856	236
4	1611	183.642395778112	237
4	1611	183.642395778112	238
4	1611	183.642395778112	239
4	1626	184.839737156008	240
4	1626	184.839737156008	241
4	1626	184.839737156008	242
4	1663	189.326133975123	243
4	1663	189.326133975123	244
4	1663	189.326133975123	245
4	1678	190.661669936102	246
4	1678	190.661669936102	247
4	1678	190.661669936102	248
4	1696	192.228410303316	249
4	1696	192.228410303316	250
4	1696	192.228410303316	251
4	1715	195.778214035384	252
4	1715	195.778214035384	253
4	1715	195.778214035384	254
4	1734	196.921468806177	255
4	1734	196.921468806177	256
4	1734	196.921468806177	257
4	1754	199.908500362356	258
4	1754	199.908500362356	259
4	1754	199.908500362356	260
4	1771	201.625750529345	261
4	1771	201.625750529345	262
4	1771	201.625750529345	263
4	1790	202.796118933425	264
4	1790	202.796118933425	265
4	1790	202.796118933425	266
4	1811	204.196906358145	267
4	1811	204.196906358145	268
4	1811	204.196906358145	269
4	1833	208.920524533344	270
4	1833	208.920524533344	271
4	1833	208.920524533344	272
4	1851	210.06575833871	273
4	1851	210.06575833871	274
4	1851	210.06575833871	275
4	1865	211.610883581175	276
4	1865	211.610883581175	277
4	1865	211.610883581175	278
4	1889	215.524572865542	279
4	1889	215.524572865542	280
4	1889	215.524572865542	281
4	1903	217.484447800916	282
4	1903	217.484447800916	283
4	1903	217.484447800916	284
4	1939	220.171993242818	285
4	1939	220.171993242818	286
4	1939	220.171993242818	287
4	1957	221.66167352105	288
4	1957	221.66167352105	289
4	1957	221.66167352105	290
4	1971	223.550777320241	291
4	1971	223.550777320241	292
4	1971	223.550777320241	293
4	1995	225.981872179953	294
4	1995	225.981872179953	295
4	1995	225.981872179953	296
4	2013	227.032273553365	297
4	2013	227.032273553365	298
4	2013	227.032273553365	299
4	2028	228.895363124484	300
4	2028	228.895363124484	301
4	2028	228.895363124484	302
4	2046	230.023579355273	303
4	2046	230.023579355273	304
4	2046	230.023579355273	305
4	2069	233.711643989644	306
4	2069	233.711643989644	307
4	2069	233.711643989644	308
4	2083	234.925693898513	309
4	2083	234.925693898513	310
4	2083	234.925693898513	311
4	2101	236.843008398429	312
4	2101	236.843008398429	313
4	2101	236.843008398429	314
4	2121	239.51725022171	315
4	2121	239.51725022171	316
4	2121	239.51725022171	317
5	18	0.184136284395	0
5	47	3.282884209524	1
5	152	17.810084470284	2
5	172	21.382324094875	3
5	188	24.632670422708	4
5	212	28.146332475828	5
5	227	29.293608578602	6
5	248	31.18313768336	7
5	266	32.851817507959	8
5	284	34.479228966437	9
5	302	35.564731140284	10
5	361	43.845079189039	11
5	416	49.930729993212	12
5	434	51.411068047447	13
5	448	53.018686724912	14
5	472	56.136109036353	15
5	490	57.945768040425	16
5	525	62.210516039571	17
5	542	64.00024735733	18
5	584	69.174792312974	19
5	601	72.38891332301	20
5	662	79.444816676787	21
5	696	83.63846832643	22
5	756	89.423055039526	23
5	771	90.916129219257	24
5	792	92.397837509896	25
5	810	93.487022287008	26
5	860	97.569124660356	27
5	882	99.429080140171	28
5	900	101.024734255926	29
5	924	103.535363639571	30
5	942	105.022771777093	31
5	974	107.529105671277	32
5	988	109.247731349509	33
5	1010	110.305468619391	34
5	1028	112.276771069339	35
5	1046	114.260947843829	36
5	1066	117.50556546303	37
5	1088	122.664513957197	38
5	1108	125.62067939915	39
5	1130	130.601548885609	40
5	1145	132.391803795951	41
5	1163	133.945038504	42
5	1184	135.506993697116	43
5	1202	136.913508296318	44
5	1220	138.564447080489	45
5	1238	139.861749642678	46
5	1256	141.462615397467	47
5	1280	147.310966441205	48
5	1316	149.513677207265	49
5	1334	150.611627335453	50
5	1352	152.099979966346	51
5	1370	153.958514172658	52
5	1384	155.29434896521	53
5	1424	160.429911050828	54
5	1444	162.806811934179	55
5	1466	164.538956263098	56
5	1481	166.373805158603	57
5	1504	169.129628314969	58
5	1518	170.735561202678	59
5	1540	172.140039039658	60
5	1596	181.76546397856	61
5	1614	183.652395778112	62
5	1666	189.336133975123	63
5	1702	192.238410303316	64
5	1719	195.788214035384	65
5	1740	196.931468806177	66
5	1760	199.918500362356	67
5	1774	201.635750529345	68
5	1796	202.806118933425	69
5	1814	204.206906358145	70
5	1836	208.930524533344	71
5	1869	211.620883581175	72
5	1892	215.534572865542	73
5	1907	217.494447800916	74
5	1960	221.67167352105	75
5	1975	223.560777320241	76
5	1998	225.991872179953	77
5	2052	230.033579355273	78
5	2072	233.721643989644	79
5	2087	234.935693898513	80
5	2104	236.853008398429	81
5	2124	239.52725022171	82

