version 2
run General-4-20231008-06:23:25-15638
attr configname General
attr datetime 20231008-06:23:25
attr experiment General
attr inifile omnetpp.ini
attr iterationvars ""
attr iterationvarsf ""
attr measurement ""
attr network Network1
attr processid 15638
attr repetition 4
attr replication #4
attr resultdir results
attr runnumber 4
attr seedset 4
param Network1.node[*].transmissionTime "uniform(1s, 2s)"
param Network1.node[*].delayTime "uniform(0.01s, 0.2s)"
param Network1.node[*].processingTime exponential(0.01s)
param Network1.node[*].lossProbability 0.25
param Reliability.node[*].transmissionTime "uniform(1s, 2s)"
param Reliability.node[*].delayTime "uniform(0.01s, 0.2s)"
param Reliability.node[*].processingTime exponential(0.01s)
param Reliability.node[*].lossProbability 0.0

vector 0 Network1.node[0] txVector ETV
vector 1 Network1.node[1] txVector ETV
vector 2 Network1.node[3] txVector ETV
vector 3 Network1.node[2] txVector ETV
vector 4 Network1.node[4] txVector ETV
vector 5 Network1.node[5] rxVector ETV
0	1	0.193735669288	0
0	15	2.094357123985	1
0	33	3.792777363365	2
0	51	5.405302706561	3
0	69	6.471012245319	4
0	87	7.699774915506	5
0	105	9.276771884332	6
0	107	11.087676821197	7
0	125	12.213858481883	8
0	139	13.590277952528	9
0	149	14.685476029911	10
0	167	16.629426703011	11
0	185	18.55879530326	12
0	191	20.486203913731	13
0	205	22.453883543066	14
0	223	23.526166798701	15
0	241	24.988496160987	16
0	251	26.549964625077	17
0	253	28.21226706022	18
0	271	29.795810591817	19
0	273	31.430380086104	20
0	275	32.922167723688	21
0	293	34.853581991202	22
0	311	35.99276379069	23
0	329	37.766735417225	24
0	347	39.643813321056	25
0	365	41.595783741601	26
0	383	42.790731429277	27
0	401	44.537979872353	28
0	403	45.581902380488	29
0	421	46.867146974118	30
0	439	47.89254867557	31
0	457	49.185409435924	32
0	475	50.297283752277	33
0	477	51.751112990934	34
0	491	53.10084408863	35
0	509	55.0525126808	36
0	527	56.454211769314	37
0	545	58.050715046158	38
0	547	59.984257675163	39
0	565	61.202173811072	40
0	583	62.409136835174	41
0	593	64.370740019637	42
0	611	66.220805155034	43
0	617	67.574657221711	44
0	635	69.114105414753	45
0	653	70.484342710502	46
0	671	71.968897563094	47
0	689	73.377978634244	48
0	707	74.622660564181	49
0	725	76.540843865524	50
0	743	78.07117767764	51
0	761	79.562285255797	52
0	779	80.866065901628	53
0	797	82.189786915126	54
0	815	83.337192263146	55
0	829	84.910974136944	56
0	831	86.800629975897	57
0	849	87.858241778257	58
0	863	89.668420456041	59
0	869	90.765270878485	60
0	875	92.65929659332	61
0	889	94.48160953556	62
0	907	96.251929762231	63
0	925	97.503284478716	64
0	943	98.884054251171	65
0	961	100.184116092434	66
0	979	101.869828539824	67
0	997	103.477913654799	68
0	1015	105.476769274025	69
0	1033	106.936263093416	70
0	1035	108.629095438559	71
0	1053	110.401410780771	72
0	1071	112.176335417822	73
0	1089	113.878766556194	74
0	1091	115.164936720317	75
0	1093	116.502687660202	76
0	1111	118.122338008292	77
0	1113	119.627250345347	78
0	1131	120.989799539016	79
0	1149	122.318505984654	80
0	1151	123.353873741037	81
0	1153	124.375047190503	82
0	1171	125.941608167642	83
0	1181	127.387941788805	84
0	1195	128.997862955944	85
0	1197	130.17770813328	86
0	1215	131.659468561334	87
0	1221	133.45731699622	88
0	1223	134.946741728268	89
0	1237	135.995391216052	90
0	1239	137.467332216601	91
0	1241	139.187619086045	92
0	1259	140.244811805819	93
0	1277	141.390923515118	94
0	1279	142.415989801909	95
0	1293	143.642852082306	96
0	1311	145.101049700675	97
0	1329	146.331823906552	98
0	1347	147.557059196679	99
0	1365	148.574223717598	100
0	1383	150.195463206775	101
0	1401	151.913289648404	102
0	1415	153.756689993821	103
0	1433	155.320170046685	104
0	1439	157.044113345833	105
0	1445	158.847804001223	106
0	1463	160.719826311262	107
0	1465	162.203074066125	108
0	1483	163.442359008983	109
0	1485	164.713555847451	110
0	1503	166.489642226294	111
0	1505	168.470903217716	112
0	1507	169.653690353192	113
0	1513	171.499634680261	114
0	1519	173.242696932673	115
0	1537	175.054643354535	116
0	1539	176.787283120135	117
0	1557	178.021963495685	118
0	1559	179.906640855286	119
0	1577	181.297791930537	120
0	1579	183.258046780869	121
0	1597	184.42807081823	122
0	1615	186.008757468702	123
0	1633	187.277823070453	124
0	1651	188.552628539891	125
0	1669	189.903464443672	126
0	1687	191.211142085649	127
0	1705	192.695100825204	128
0	1723	193.721884162089	129
0	1741	195.381514401332	130
0	1759	197.095412958105	131
0	1773	198.527125842095	132
0	1791	200.283994607784	133
0	1809	201.553423351532	134
0	1827	203.377465296693	135
0	1845	205.293792474007	136
0	1859	206.814672767341	137
0	1877	208.333168118184	138
0	1895	209.955214725731	139
0	1913	211.566047135431	140
0	1915	212.779729129437	141
0	1917	214.407535764545	142
0	1919	216.313843493273	143
0	1937	217.7999577603	144
0	1947	219.163496360106	145
0	1965	220.226509217562	146
0	1983	221.808884641312	147
0	2001	223.4196039044	148
0	2019	225.372597871738	149
0	2033	226.836320900748	150
0	2051	228.207822278299	151
0	2053	229.592120076221	152
0	2059	231.366722606978	153
0	2077	232.614909648587	154
0	2079	234.377217226121	155
0	2097	235.857518501738	156
0	2107	237.279240785325	157
0	2121	238.608424862074	158
0	2139	239.645329547972	159
1	3	0.205631491707	0
1	3	0.205631491707	1
1	3	0.205631491707	2
1	17	2.127705988723	3
1	17	2.127705988723	4
1	17	2.127705988723	5
1	35	3.805876282765	6
1	35	3.805876282765	7
1	35	3.805876282765	8
1	53	5.417236870152	9
1	53	5.417236870152	10
1	53	5.417236870152	11
1	71	6.483384423573	12
1	71	6.483384423573	13
1	71	6.483384423573	14
1	89	7.714108527284	15
1	89	7.714108527284	16
1	89	7.714108527284	17
1	109	11.098464076019	18
1	109	11.098464076019	19
1	109	11.098464076019	20
1	127	12.242613519741	21
1	127	12.242613519741	22
1	127	12.242613519741	23
1	141	13.602729675257	24
1	141	13.602729675257	25
1	141	13.602729675257	26
1	151	14.69725380952	27
1	151	14.69725380952	28
1	151	14.69725380952	29
1	169	16.640807093624	30
1	169	16.640807093624	31
1	169	16.640807093624	32
1	187	18.570748252521	33
1	187	18.570748252521	34
1	187	18.570748252521	35
1	193	20.500069596271	36
1	193	20.500069596271	37
1	193	20.500069596271	38
1	207	22.466030822164	39
1	207	22.466030822164	40
1	207	22.466030822164	41
1	225	23.537738745602	42
1	225	23.537738745602	43
1	225	23.537738745602	44
1	243	24.998600975092	45
1	243	24.998600975092	46
1	243	24.998600975092	47
1	255	28.235244878874	48
1	255	28.235244878874	49
1	255	28.235244878874	50
1	277	32.959639870966	51
1	277	32.959639870966	52
1	277	32.959639870966	53
1	295	34.876658841278	54
1	295	34.876658841278	55
1	295	34.876658841278	56
1	313	36.018259392265	57
1	313	36.018259392265	58
1	313	36.018259392265	59
1	331	37.785817598448	60
1	331	37.785817598448	61
1	331	37.785817598448	62
1	349	39.653979530902	63
1	349	39.653979530902	64
1	349	39.653979530902	65
1	367	41.610794744505	66
1	367	41.610794744505	67
1	367	41.610794744505	68
1	385	42.801607730952	69
1	385	42.801607730952	70
1	385	42.801607730952	71
1	405	45.595055847137	72
1	405	45.595055847137	73
1	405	45.595055847137	74
1	423	46.87861291105	75
1	423	46.87861291105	76
1	423	46.87861291105	77
1	441	47.928476326797	78
1	441	47.928476326797	79
1	441	47.928476326797	80
1	459	49.203400630867	81
1	459	49.203400630867	82
1	459	49.203400630867	83
1	479	51.763140519399	84
1	479	51.763140519399	85
1	479	51.763140519399	86
1	493	53.12171453117	87
1	493	53.12171453117	88
1	493	53.12171453117	89
1	511	55.078512213308	90
1	511	55.078512213308	91
1	511	55.078512213308	92
1	529	56.481094761931	93
1	529	56.481094761931	94
1	529	56.481094761931	95
1	549	59.997335376402	96
1	549	59.997335376402	97
1	549	59.997335376402	98
1	567	61.230565737742	99
1	567	61.230565737742	100
1	567	61.230565737742	101
1	585	62.423905566309	102
1	585	62.423905566309	103
1	585	62.423905566309	104
1	595	64.387518978931	105
1	595	64.387518978931	106
1	595	64.387518978931	107
1	613	66.23837512093	108
1	613	66.23837512093	109
1	613	66.23837512093	110
1	619	67.589092519475	111
1	619	67.589092519475	112
1	619	67.589092519475	113
1	637	69.129414275285	114
1	637	69.129414275285	115
1	637	69.129414275285	116
1	655	70.499415161612	117
1	655	70.499415161612	118
1	655	70.499415161612	119
1	673	71.990032217081	120
1	673	71.990032217081	121
1	673	71.990032217081	122
1	691	73.403870713779	123
1	691	73.403870713779	124
1	691	73.403870713779	125
1	709	74.636107233981	126
1	709	74.636107233981	127
1	709	74.636107233981	128
1	727	76.555742526305	129
1	727	76.555742526305	130
1	727	76.555742526305	131
1	745	78.086187896128	132
1	745	78.086187896128	133
1	745	78.086187896128	134
1	763	79.593574703218	135
1	763	79.593574703218	136
1	763	79.593574703218	137
1	781	80.876632420019	138
1	781	80.876632420019	139
1	781	80.876632420019	140
1	799	82.215253798739	141
1	799	82.215253798739	142
1	799	82.215253798739	143
1	817	83.349893859965	144
1	817	83.349893859965	145
1	817	83.349893859965	146
1	833	86.821286618739	147
1	833	86.821286618739	148
1	833	86.821286618739	149
1	851	87.868399612254	150
1	851	87.868399612254	151
1	851	87.868399612254	152
1	865	89.685038646854	153
1	865	89.685038646854	154
1	865	89.685038646854	155
1	871	90.780302511335	156
1	871	90.780302511335	157
1	871	90.780302511335	158
1	877	92.69010521307	159
1	877	92.69010521307	160
1	877	92.69010521307	161
1	891	94.492895953047	162
1	891	94.492895953047	163
1	891	94.492895953047	164
1	909	96.262579664562	165
1	909	96.262579664562	166
1	909	96.262579664562	167
1	927	97.516054666694	168
1	927	97.516054666694	169
1	927	97.516054666694	170
1	945	98.898905511341	171
1	945	98.898905511341	172
1	945	98.898905511341	173
1	963	100.202977056451	174
1	963	100.202977056451	175
1	963	100.202977056451	176
1	981	101.910429732934	177
1	981	101.910429732934	178
1	981	101.910429732934	179
1	999	103.503131351625	180
1	999	103.503131351625	181
1	999	103.503131351625	182
1	1017	105.51283543262	183
1	1017	105.51283543262	184
1	1017	105.51283543262	185
1	1037	108.653982674006	186
1	1037	108.653982674006	187
1	1037	108.653982674006	188
1	1055	110.417365181807	189
1	1055	110.417365181807	190
1	1055	110.417365181807	191
1	1073	112.204281768904	192
1	1073	112.204281768904	193
1	1073	112.204281768904	194
1	1095	116.518780195635	195
1	1095	116.518780195635	196
1	1095	116.518780195635	197
1	1115	119.641417591023	198
1	1115	119.641417591023	199
1	1115	119.641417591023	200
1	1133	121.006349096957	201
1	1133	121.006349096957	202
1	1133	121.006349096957	203
1	1155	124.392022601708	204
1	1155	124.392022601708	205
1	1155	124.392022601708	206
1	1173	125.964733181618	207
1	1173	125.964733181618	208
1	1173	125.964733181618	209
1	1183	127.435850208546	210
1	1183	127.435850208546	211
1	1183	127.435850208546	212
1	1199	130.203180619629	213
1	1199	130.203180619629	214
1	1199	130.203180619629	215
1	1217	131.672900252987	216
1	1217	131.672900252987	217
1	1217	131.672900252987	218
1	1225	134.965342363477	219
1	1225	134.965342363477	220
1	1225	134.965342363477	221
1	1243	139.19776481502	222
1	1243	139.19776481502	223
1	1243	139.19776481502	224
1	1261	140.269150277222	225
1	1261	140.269150277222	226
1	1261	140.269150277222	227
1	1281	142.433625488295	228
1	1281	142.433625488295	229
1	1281	142.433625488295	230
1	1295	143.664901052623	231
1	1295	143.664901052623	232
1	1295	143.664901052623	233
1	1313	145.121036986641	234
1	1313	145.121036986641	235
1	1313	145.121036986641	236
1	1331	146.34331529812	237
1	1331	146.34331529812	238
1	1331	146.34331529812	239
1	1349	147.571112874912	240
1	1349	147.571112874912	241
1	1349	147.571112874912	242
1	1367	148.590946590436	243
1	1367	148.590946590436	244
1	1367	148.590946590436	245
1	1385	150.212643520798	246
1	1385	150.212643520798	247
1	1385	150.212643520798	248
1	1403	151.924764337536	249
1	1403	151.924764337536	250
1	1403	151.924764337536	251
1	1417	153.77382862868	252
1	1417	153.77382862868	253
1	1417	153.77382862868	254
1	1435	155.347341107434	255
1	1435	155.347341107434	256
1	1435	155.347341107434	257
1	1441	157.059122583148	258
1	1441	157.059122583148	259
1	1441	157.059122583148	260
1	1447	158.85807620617	261
1	1447	158.85807620617	262
1	1447	158.85807620617	263
1	1467	162.21639828116	264
1	1467	162.21639828116	265
1	1467	162.21639828116	266
1	1487	164.728004679188	267
1	1487	164.728004679188	268
1	1487	164.728004679188	269
1	1509	169.674085561713	270
1	1509	169.674085561713	271
1	1509	169.674085561713	272
1	1515	171.515002686841	273
1	1515	171.515002686841	274
1	1515	171.515002686841	275
1	1521	173.259359128441	276
1	1521	173.259359128441	277
1	1521	173.259359128441	278
1	1541	176.806089786592	279
1	1541	176.806089786592	280
1	1541	176.806089786592	281
1	1561	179.91688683456	282
1	1561	179.91688683456	283
1	1561	179.91688683456	284
1	1581	183.269076623053	285
1	1581	183.269076623053	286
1	1581	183.269076623053	287
1	1599	184.455298305239	288
1	1599	184.455298305239	289
1	1599	184.455298305239	290
1	1617	186.03755996536	291
1	1617	186.03755996536	292
1	1617	186.03755996536	293
1	1635	187.289979953704	294
1	1635	187.289979953704	295
1	1635	187.289979953704	296
1	1653	188.571695962712	297
1	1653	188.571695962712	298
1	1653	188.571695962712	299
1	1671	189.925016288924	300
1	1671	189.925016288924	301
1	1671	189.925016288924	302
1	1689	191.226322280312	303
1	1689	191.226322280312	304
1	1689	191.226322280312	305
1	1707	192.738757499493	306
1	1707	192.738757499493	307
1	1707	192.738757499493	308
1	1725	193.735129986792	309
1	1725	193.735129986792	310
1	1725	193.735129986792	311
1	1743	195.40030370139	312
1	1743	195.40030370139	313
1	1743	195.40030370139	314
1	1761	197.117376385543	315
1	1761	197.117376385543	316
1	1761	197.117376385543	317
1	1775	198.542918627507	318
1	1775	198.542918627507	319
1	1775	198.542918627507	320
1	1793	200.295247763636	321
1	1793	200.295247763636	322
1	1793	200.295247763636	323
1	1811	201.573395228877	324
1	1811	201.573395228877	325
1	1811	201.573395228877	326
1	1829	203.39287607416	327
1	1829	203.39287607416	328
1	1829	203.39287607416	329
1	1847	205.30587983521	330
1	1847	205.30587983521	331
1	1847	205.30587983521	332
1	1861	206.830604444365	333
1	1861	206.830604444365	334
1	1861	206.830604444365	335
1	1879	208.34774113624	336
1	1879	208.34774113624	337
1	1879	208.34774113624	338
1	1897	209.980177874714	339
1	1897	209.980177874714	340
1	1897	209.980177874714	341
1	1921	216.331718122716	342
1	1921	216.331718122716	343
1	1921	216.331718122716	344
1	1939	217.810544103492	345
1	1939	217.810544103492	346
1	1939	217.810544103492	347
1	1949	219.203070782895	348
1	1949	219.203070782895	349
1	1949	219.203070782895	350
1	1967	220.262243561105	351
1	1967	220.262243561105	352
1	1967	220.262243561105	353
1	1985	221.820208389177	354
1	1985	221.820208389177	355
1	1985	221.820208389177	356
1	2003	223.429946734534	357
1	2003	223.429946734534	358
1	2003	223.429946734534	359
1	2021	225.389250847345	360
1	2021	225.389250847345	361
1	2021	225.389250847345	362
1	2035	226.860034062336	363
1	2035	226.860034062336	364
1	2035	226.860034062336	365
1	2055	229.60810667757	366
1	2055	229.60810667757	367
1	2055	229.60810667757	368
1	2061	231.378108338306	369
1	2061	231.378108338306	370
1	2061	231.378108338306	371
1	2081	234.400678543101	372
1	2081	234.400678543101	373
1	2081	234.400678543101	374
1	2099	235.878456168758	375
1	2099	235.878456168758	376
1	2099	235.878456168758	377
1	2109	237.289951097896	378
1	2109	237.289951097896	379
1	2109	237.289951097896	380
1	2123	238.623819911552	381
1	2123	238.623819911552	382
1	2123	238.623819911552	383
1	2141	239.672783401002	384
1	2141	239.672783401002	385
1	2141	239.672783401002	386
2	7	0.227595799025	0
2	7	0.227595799025	1
2	7	0.227595799025	2
2	29	2.203803187983	3
2	29	2.203803187983	4
2	29	2.203803187983	5
2	39	3.82160589353	6
2	39	3.82160589353	7
2	39	3.82160589353	8
2	57	5.432486856985	9
2	57	5.432486856985	10
2	57	5.432486856985	11
2	75	6.497184096438	12
2	75	6.497184096438	13
2	75	6.497184096438	14
2	93	7.727034530797	15
2	93	7.727034530797	16
2	93	7.727034530797	17
2	113	11.114117282614	18
2	113	11.114117282614	19
2	113	11.114117282614	20
2	131	12.261669206858	21
2	131	12.261669206858	22
2	131	12.261669206858	23
2	155	14.71177388054	24
2	155	14.71177388054	25
2	155	14.71177388054	26
2	174	16.667422009771	27
2	174	16.667422009771	28
2	174	16.667422009771	29
2	197	20.51581020248	30
2	197	20.51581020248	31
2	197	20.51581020248	32
2	211	22.496969704648	33
2	211	22.496969704648	34
2	211	22.496969704648	35
2	230	23.563558107151	36
2	230	23.563558107151	37
2	230	23.563558107151	38
2	247	25.008976556243	39
2	247	25.008976556243	40
2	247	25.008976556243	41
2	263	28.271781421341	42
2	263	28.271781421341	43
2	263	28.271781421341	44
2	282	32.984850988105	45
2	282	32.984850988105	46
2	282	32.984850988105	47
2	299	34.887423898386	48
2	299	34.887423898386	49
2	299	34.887423898386	50
2	318	36.034138990963	51
2	318	36.034138990963	52
2	318	36.034138990963	53
2	335	37.796726868189	54
2	335	37.796726868189	55
2	335	37.796726868189	56
2	354	39.668021617342	57
2	354	39.668021617342	58
2	354	39.668021617342	59
2	379	41.66377225193	60
2	379	41.66377225193	61
2	379	41.66377225193	62
2	397	42.848577267719	63
2	397	42.848577267719	64
2	397	42.848577267719	65
2	409	45.608207962438	66
2	409	45.608207962438	67
2	409	45.608207962438	68
2	431	46.919451792745	69
2	431	46.919451792745	70
2	431	46.919451792745	71
2	445	47.948708432518	72
2	445	47.948708432518	73
2	445	47.948708432518	74
2	463	49.216678085527	75
2	463	49.216678085527	76
2	463	49.216678085527	77
2	484	51.7832502159	78
2	484	51.7832502159	79
2	484	51.7832502159	80
2	501	53.152513935585	81
2	501	53.152513935585	82
2	501	53.152513935585	83
2	516	55.098821054225	84
2	516	55.098821054225	85
2	516	55.098821054225	86
2	541	56.536066654395	87
2	541	56.536066654395	88
2	541	56.536066654395	89
2	557	60.028273337714	90
2	557	60.028273337714	91
2	557	60.028273337714	92
2	575	61.268690106225	93
2	575	61.268690106225	94
2	575	61.268690106225	95
2	589	62.43441139415	96
2	589	62.43441139415	97
2	589	62.43441139415	98
2	603	64.410382836044	99
2	603	64.410382836044	100
2	603	64.410382836044	101
2	627	67.610596045679	102
2	627	67.610596045679	103
2	627	67.610596045679	104
2	645	69.156434675261	105
2	645	69.156434675261	106
2	645	69.156434675261	107
2	660	70.533344682157	108
2	660	70.533344682157	109
2	660	70.533344682157	110
2	677	72.005709151701	111
2	677	72.005709151701	112
2	677	72.005709151701	113
2	695	73.459389278044	114
2	695	73.459389278044	115
2	695	73.459389278044	116
2	713	74.65658543383	117
2	713	74.65658543383	118
2	713	74.65658543383	119
2	732	76.589487109976	120
2	732	76.589487109976	121
2	732	76.589487109976	122
2	754	78.125935323179	123
2	754	78.125935323179	124
2	754	78.125935323179	125
2	772	79.628156829693	126
2	772	79.628156829693	127
2	772	79.628156829693	128
2	785	80.903274709146	129
2	785	80.903274709146	130
2	785	80.903274709146	131
2	804	82.225955965283	132
2	804	82.225955965283	133
2	804	82.225955965283	134
2	821	83.363957053061	135
2	821	83.363957053061	136
2	821	83.363957053061	137
2	837	86.833903723832	138
2	837	86.833903723832	139
2	837	86.833903723832	140
2	859	87.892866702632	141
2	859	87.892866702632	142
2	859	87.892866702632	143
2	881	92.704315371139	144
2	881	92.704315371139	145
2	881	92.704315371139	146
2	899	94.517058392676	147
2	899	94.517058392676	148
2	899	94.517058392676	149
2	913	96.281390912615	150
2	913	96.281390912615	151
2	913	96.281390912615	152
2	931	97.52849377996	153
2	931	97.52849377996	154
2	931	97.52849377996	155
2	950	98.915485200855	156
2	950	98.915485200855	157
2	950	98.915485200855	158
2	968	100.235768045837	159
2	968	100.235768045837	160
2	968	100.235768045837	161
2	985	101.935677936634	162
2	985	101.935677936634	163
2	985	101.935677936634	164
2	1004	103.529197087485	165
2	1004	103.529197087485	166
2	1004	103.529197087485	167
2	1025	105.537070667283	168
2	1025	105.537070667283	169
2	1025	105.537070667283	170
2	1041	108.678275627701	171
2	1041	108.678275627701	172
2	1041	108.678275627701	173
2	1059	110.428794514621	174
2	1059	110.428794514621	175
2	1059	110.428794514621	176
2	1078	112.216218771646	177
2	1078	112.216218771646	178
2	1078	112.216218771646	179
2	1099	116.548307424811	180
2	1099	116.548307424811	181
2	1099	116.548307424811	182
2	1124	119.672878582041	183
2	1124	119.672878582041	184
2	1124	119.672878582041	185
2	1137	121.023038911154	186
2	1137	121.023038911154	187
2	1137	121.023038911154	188
2	1160	124.414010066773	189
2	1160	124.414010066773	190
2	1160	124.414010066773	191
2	1187	127.470135638317	192
2	1187	127.470135638317	193
2	1187	127.470135638317	194
2	1203	130.224515219812	195
2	1203	130.224515219812	196
2	1203	130.224515219812	197
2	1229	134.978604161025	198
2	1229	134.978604161025	199
2	1229	134.978604161025	200
2	1247	139.208088925008	201
2	1247	139.208088925008	202
2	1247	139.208088925008	203
2	1265	140.282602609424	204
2	1265	140.282602609424	205
2	1265	140.282602609424	206
2	1299	143.679522731727	207
2	1299	143.679522731727	208
2	1299	143.679522731727	209
2	1317	145.135463441724	210
2	1317	145.135463441724	211
2	1317	145.135463441724	212
2	1339	146.386429280703	213
2	1339	146.386429280703	214
2	1339	146.386429280703	215
2	1357	147.621826186448	216
2	1357	147.621826186448	217
2	1357	147.621826186448	218
2	1372	148.608593293033	219
2	1372	148.608593293033	220
2	1372	148.608593293033	221
2	1394	150.236044171563	222
2	1394	150.236044171563	223
2	1394	150.236044171563	224
2	1407	151.950459568834	225
2	1407	151.950459568834	226
2	1407	151.950459568834	227
2	1425	153.840639554386	228
2	1425	153.840639554386	229
2	1425	153.840639554386	230
2	1452	158.882568676506	231
2	1452	158.882568676506	232
2	1452	158.882568676506	233
2	1471	162.227667762447	234
2	1471	162.227667762447	235
2	1471	162.227667762447	236
2	1499	164.783463767367	237
2	1499	164.783463767367	238
2	1499	164.783463767367	239
2	1525	173.27440485813	240
2	1525	173.27440485813	241
2	1525	173.27440485813	242
2	1546	176.825655128425	243
2	1546	176.825655128425	244
2	1546	176.825655128425	245
2	1565	179.927936896849	246
2	1565	179.927936896849	247
2	1565	179.927936896849	248
2	1585	183.291939904493	249
2	1585	183.291939904493	250
2	1585	183.291939904493	251
2	1604	184.465822991313	252
2	1604	184.465822991313	253
2	1604	184.465822991313	254
2	1621	186.050523896067	255
2	1621	186.050523896067	256
2	1621	186.050523896067	257
2	1639	187.304090998332	258
2	1639	187.304090998332	259
2	1639	187.304090998332	260
2	1662	188.607100988949	261
2	1662	188.607100988949	262
2	1662	188.607100988949	263
2	1675	189.942182985762	264
2	1675	189.942182985762	265
2	1675	189.942182985762	266
2	1701	191.265333666587	267
2	1701	191.265333666587	268
2	1701	191.265333666587	269
2	1711	192.755055396418	270
2	1711	192.755055396418	271
2	1711	192.755055396418	272
2	1730	193.754867446325	273
2	1730	193.754867446325	274
2	1730	193.754867446325	275
2	1752	195.464430424844	276
2	1752	195.464430424844	277
2	1752	195.464430424844	278
2	1766	197.137922576135	279
2	1766	197.137922576135	280
2	1766	197.137922576135	281
2	1779	198.567629225978	282
2	1779	198.567629225978	283
2	1779	198.567629225978	284
2	1797	200.306211325843	285
2	1797	200.306211325843	286
2	1797	200.306211325843	287
2	1815	201.587219513549	288
2	1815	201.587219513549	289
2	1815	201.587219513549	290
2	1833	203.403869873021	291
2	1833	203.403869873021	292
2	1833	203.403869873021	293
2	1852	205.328545651895	294
2	1852	205.328545651895	295
2	1852	205.328545651895	296
2	1866	206.852717249163	297
2	1866	206.852717249163	298
2	1866	206.852717249163	299
2	1888	208.378242210931	300
2	1888	208.378242210931	301
2	1888	208.378242210931	302
2	1906	210.019220081862	303
2	1906	210.019220081862	304
2	1906	210.019220081862	305
2	1926	216.347211879229	306
2	1926	216.347211879229	307
2	1926	216.347211879229	308
2	1943	217.83472048798	309
2	1943	217.83472048798	310
2	1943	217.83472048798	311
2	1953	219.213198827556	312
2	1953	219.213198827556	313
2	1953	219.213198827556	314
2	1971	220.280157988079	315
2	1971	220.280157988079	316
2	1971	220.280157988079	317
2	1997	221.878480598193	318
2	1997	221.878480598193	319
2	1997	221.878480598193	320
2	2007	223.442958399502	321
2	2007	223.442958399502	322
2	2007	223.442958399502	323
2	2025	225.444299127077	324
2	2025	225.444299127077	325
2	2025	225.444299127077	326
2	2039	226.870818833199	327
2	2039	226.870818833199	328
2	2039	226.870818833199	329
2	2065	231.395927723615	330
2	2065	231.395927723615	331
2	2065	231.395927723615	332
2	2085	234.420042498898	333
2	2085	234.420042498898	334
2	2085	234.420042498898	335
2	2114	237.309004203979	336
2	2114	237.309004203979	337
2	2114	237.309004203979	338
2	2131	238.664853246763	339
2	2131	238.664853246763	340
2	2131	238.664853246763	341
3	8	0.228177698444	0
3	8	0.228177698444	1
3	8	0.228177698444	2
3	21	2.152819256492	3
3	21	2.152819256492	4
3	21	2.152819256492	5
3	43	3.847261452874	6
3	43	3.847261452874	7
3	43	3.847261452874	8
3	58	5.440456184909	9
3	58	5.440456184909	10
3	58	5.440456184909	11
3	83	6.531904812002	12
3	83	6.531904812002	13
3	83	6.531904812002	14
3	94	7.735713417453	15
3	94	7.735713417453	16
3	94	7.735713417453	17
3	118	11.13352125786	18
3	118	11.13352125786	19
3	118	11.13352125786	20
3	135	12.272347362567	21
3	135	12.272347362567	22
3	135	12.272347362567	23
3	145	13.619960255572	24
3	145	13.619960255572	25
3	145	13.619960255572	26
3	156	14.716787580645	27
3	156	14.716787580645	28
3	156	14.716787580645	29
3	173	16.657496277172	30
3	173	16.657496277172	31
3	173	16.657496277172	32
3	198	20.519717316195	33
3	198	20.519717316195	34
3	198	20.519717316195	35
3	216	22.520174722762	36
3	216	22.520174722762	37
3	216	22.520174722762	38
3	229	23.561990325404	39
3	229	23.561990325404	40
3	229	23.561990325404	41
3	259	28.255959266545	42
3	259	28.255959266545	43
3	259	28.255959266545	44
3	281	32.974875968846	45
3	281	32.974875968846	46
3	281	32.974875968846	47
3	307	34.933540900044	48
3	307	34.933540900044	49
3	307	34.933540900044	50
3	317	36.032413431929	51
3	317	36.032413431929	52
3	317	36.032413431929	53
3	339	37.812296732819	54
3	339	37.812296732819	55
3	339	37.812296732819	56
3	353	39.666484433322	57
3	353	39.666484433322	58
3	353	39.666484433322	59
3	371	41.626684872261	60
3	371	41.626684872261	61
3	371	41.626684872261	62
3	389	42.816849917888	63
3	389	42.816849917888	64
3	389	42.816849917888	65
3	410	45.610052177543	66
3	410	45.610052177543	67
3	410	45.610052177543	68
3	427	46.893262414614	69
3	427	46.893262414614	70
3	427	46.893262414614	71
3	453	47.987798704409	72
3	453	47.987798704409	73
3	453	47.987798704409	74
3	464	49.222009949578	75
3	464	49.222009949578	76
3	464	49.222009949578	77
3	483	51.78151921973	78
3	483	51.78151921973	79
3	483	51.78151921973	80
3	497	53.137207699798	81
3	497	53.137207699798	82
3	497	53.137207699798	83
3	515	55.088896973101	84
3	515	55.088896973101	85
3	515	55.088896973101	86
3	533	56.50954995071	87
3	533	56.50954995071	88
3	533	56.50954995071	89
3	553	60.012602142089	90
3	553	60.012602142089	91
3	553	60.012602142089	92
3	571	61.251094048535	93
3	571	61.251094048535	94
3	571	61.251094048535	95
3	599	64.398113561148	96
3	599	64.398113561148	97
3	599	64.398113561148	98
3	623	67.600321301773	99
3	623	67.600321301773	100
3	623	67.600321301773	101
3	641	69.14512846241	102
3	641	69.14512846241	103
3	641	69.14512846241	104
3	659	70.533330360882	105
3	659	70.533330360882	106
3	659	70.533330360882	107
3	682	72.019515875216	108
3	682	72.019515875216	109
3	682	72.019515875216	110
3	699	73.470025377868	111
3	699	73.470025377868	112
3	699	73.470025377868	113
3	718	74.673857578448	114
3	718	74.673857578448	115
3	718	74.673857578448	116
3	731	76.581660571157	117
3	731	76.581660571157	118
3	731	76.581660571157	119
3	749	78.104672406458	120
3	749	78.104672406458	121
3	749	78.104672406458	122
3	767	79.614758664536	123
3	767	79.614758664536	124
3	767	79.614758664536	125
3	789	80.919152558798	126
3	789	80.919152558798	127
3	789	80.919152558798	128
3	803	82.22537372828	129
3	803	82.22537372828	130
3	803	82.22537372828	131
3	822	83.368367229323	132
3	822	83.368367229323	133
3	822	83.368367229323	134
3	838	86.837075418589	135
3	838	86.837075418589	136
3	838	86.837075418589	137
3	855	87.880409458669	138
3	855	87.880409458669	139
3	855	87.880409458669	140
3	882	92.712386045194	141
3	882	92.712386045194	142
3	882	92.712386045194	143
3	895	94.506524917457	144
3	895	94.506524917457	145
3	895	94.506524917457	146
3	917	96.296901517418	147
3	917	96.296901517418	148
3	917	96.296901517418	149
3	936	97.544124561616	150
3	936	97.544124561616	151
3	936	97.544124561616	152
3	949	98.913529424187	153
3	949	98.913529424187	154
3	949	98.913529424187	155
3	967	100.231059414806	156
3	967	100.231059414806	157
3	967	100.231059414806	158
3	986	101.942544190207	159
3	986	101.942544190207	160
3	986	101.942544190207	161
3	1003	103.523887120112	162
3	1003	103.523887120112	163
3	1003	103.523887120112	164
3	1021	105.526658716549	165
3	1021	105.526658716549	166
3	1021	105.526658716549	167
3	1046	108.694666653066	168
3	1046	108.694666653066	169
3	1046	108.694666653066	170
3	1063	110.454491383402	171
3	1063	110.454491383402	172
3	1063	110.454491383402	173
3	1077	112.214688004379	174
3	1077	112.214688004379	175
3	1077	112.214688004379	176
3	1103	116.56746061807	177
3	1103	116.56746061807	178
3	1103	116.56746061807	179
3	1119	119.652560606107	180
3	1119	119.652560606107	181
3	1119	119.652560606107	182
3	1138	121.031948550811	183
3	1138	121.031948550811	184
3	1138	121.031948550811	185
3	1159	124.41030033376	186
3	1159	124.41030033376	187
3	1159	124.41030033376	188
3	1177	125.979442260703	189
3	1177	125.979442260703	190
3	1177	125.979442260703	191
3	1204	130.224794975302	192
3	1204	130.224794975302	193
3	1204	130.224794975302	194
3	1233	134.993037432208	195
3	1233	134.993037432208	196
3	1233	134.993037432208	197
3	1251	139.227642350698	198
3	1251	139.227642350698	199
3	1251	139.227642350698	200
3	1273	140.329492668846	201
3	1273	140.329492668846	202
3	1273	140.329492668846	203
3	1285	142.446819711871	204
3	1285	142.446819711871	205
3	1285	142.446819711871	206
3	1300	143.681122446356	207
3	1300	143.681122446356	208
3	1300	143.681122446356	209
3	1321	145.150181338826	210
3	1321	145.150181338826	211
3	1321	145.150181338826	212
3	1335	146.374418584459	213
3	1335	146.374418584459	214
3	1335	146.374418584459	215
3	1353	147.599105914497	216
3	1353	147.599105914497	217
3	1353	147.599105914497	218
3	1371	148.604166757339	219
3	1371	148.604166757339	220
3	1371	148.604166757339	221
3	1389	150.224660816334	222
3	1389	150.224660816334	223
3	1389	150.224660816334	224
3	1421	153.825596373293	225
3	1421	153.825596373293	226
3	1421	153.825596373293	227
3	1451	158.880560048261	228
3	1451	158.880560048261	229
3	1451	158.880560048261	230
3	1475	162.242091885402	231
3	1475	162.242091885402	232
3	1475	162.242091885402	233
3	1491	164.748128450137	234
3	1491	164.748128450137	235
3	1491	164.748128450137	236
3	1526	173.278593374977	237
3	1526	173.278593374977	238
3	1526	173.278593374977	239
3	1545	176.821470508722	240
3	1545	176.821470508722	241
3	1545	176.821470508722	242
3	1573	179.968196191427	243
3	1573	179.968196191427	244
3	1573	179.968196191427	245
3	1589	183.311957420166	246
3	1589	183.311957420166	247
3	1589	183.311957420166	248
3	1603	184.465691933486	249
3	1603	184.465691933486	250
3	1603	184.465691933486	251
3	1625	186.06939348923	252
3	1625	186.06939348923	253
3	1625	186.06939348923	254
3	1644	187.328646284067	255
3	1644	187.328646284067	256
3	1644	187.328646284067	257
3	1657	188.586644824669	258
3	1657	188.586644824669	259
3	1657	188.586644824669	260
3	1679	189.955985815286	261
3	1679	189.955985815286	262
3	1679	189.955985815286	263
3	1693	191.243018389826	264
3	1693	191.243018389826	265
3	1693	191.243018389826	266
3	1712	192.762356678428	267
3	1712	192.762356678428	268
3	1712	192.762356678428	269
3	1729	193.747763746889	270
3	1729	193.747763746889	271
3	1729	193.747763746889	272
3	1747	195.446943793087	273
3	1747	195.446943793087	274
3	1747	195.446943793087	275
3	1765	197.132845917191	276
3	1765	197.132845917191	277
3	1765	197.132845917191	278
3	1783	198.585196525975	279
3	1783	198.585196525975	280
3	1783	198.585196525975	281
3	1802	200.323523757128	282
3	1802	200.323523757128	283
3	1802	200.323523757128	284
3	1823	201.632730011477	285
3	1823	201.632730011477	286
3	1823	201.632730011477	287
3	1834	203.410942414663	288
3	1834	203.410942414663	289
3	1834	203.410942414663	290
3	1851	205.32570519531	291
3	1851	205.32570519531	292
3	1851	205.32570519531	293
3	1865	206.842763014142	294
3	1865	206.842763014142	295
3	1865	206.842763014142	296
3	1883	208.363542974269	297
3	1883	208.363542974269	298
3	1883	208.363542974269	299
3	1901	209.991784647235	300
3	1901	209.991784647235	301
3	1901	209.991784647235	302
3	1925	216.342175618269	303
3	1925	216.342175618269	304
3	1925	216.342175618269	305
3	1957	219.225200701934	306
3	1957	219.225200701934	307
3	1957	219.225200701934	308
3	1975	220.292153328972	309
3	1975	220.292153328972	310
3	1975	220.292153328972	311
3	1989	221.848718353101	312
3	1989	221.848718353101	313
3	1989	221.848718353101	314
3	2012	223.473093057202	315
3	2012	223.473093057202	316
3	2012	223.473093057202	317
3	2029	225.458385646275	318
3	2029	225.458385646275	319
3	2029	225.458385646275	320
3	2043	226.881389050596	321
3	2043	226.881389050596	322
3	2043	226.881389050596	323
3	2066	231.402440007468	324
3	2066	231.402440007468	325
3	2066	231.402440007468	326
3	2086	234.423817270696	327
3	2086	234.423817270696	328
3	2086	234.423817270696	329
3	2103	235.904728160121	330
3	2103	235.904728160121	331
3	2103	235.904728160121	332
3	2113	237.301876330605	333
3	2113	237.301876330605	334
3	2113	237.301876330605	335
3	2127	238.635830279011	336
3	2127	238.635830279011	337
3	2127	238.635830279011	338
4	25	2.182696506257	0
4	25	2.182696506257	1
4	25	2.182696506257	2
4	47	3.87738222034	3
4	47	3.87738222034	4
4	47	3.87738222034	5
4	65	5.470224204363	6
4	65	5.470224204363	7
4	65	5.470224204363	8
4	79	6.511890029409	9
4	79	6.511890029409	10
4	79	6.511890029409	11
4	101	7.746840979497	12
4	101	7.746840979497	13
4	101	7.746840979497	14
4	117	11.129509127341	15
4	117	11.129509127341	16
4	117	11.129509127341	17
4	163	14.727950875413	18
4	163	14.727950875413	19
4	163	14.727950875413	20
4	181	16.678007109486	21
4	181	16.678007109486	22
4	181	16.678007109486	23
4	215	22.518323050461	24
4	215	22.518323050461	25
4	215	22.518323050461	26
4	237	23.596941326719	27
4	237	23.596941326719	28
4	237	23.596941326719	29
4	264	28.276942141904	30
4	264	28.276942141904	31
4	264	28.276942141904	32
4	286	32.992127956288	33
4	286	32.992127956288	34
4	286	32.992127956288	35
4	303	34.910896355596	36
4	303	34.910896355596	37
4	303	34.910896355596	38
4	325	36.045903796112	39
4	325	36.045903796112	40
4	325	36.045903796112	41
4	340	37.814870576115	42
4	340	37.814870576115	43
4	340	37.814870576115	44
4	358	39.676685872247	45
4	358	39.676685872247	46
4	358	39.676685872247	47
4	375	41.646147536552	48
4	375	41.646147536552	49
4	375	41.646147536552	50
4	393	42.830906414837	51
4	393	42.830906414837	52
4	393	42.830906414837	53
4	417	45.624313303058	54
4	417	45.624313303058	55
4	417	45.624313303058	56
4	435	46.936949272945	57
4	435	46.936949272945	58
4	435	46.936949272945	59
4	449	47.964438475252	60
4	449	47.964438475252	61
4	449	47.964438475252	62
4	468	49.229315855766	63
4	468	49.229315855766	64
4	468	49.229315855766	65
4	502	53.157212321415	66
4	502	53.157212321415	67
4	502	53.157212321415	68
4	523	55.120880169212	69
4	523	55.120880169212	70
4	523	55.120880169212	71
4	537	56.525358838687	72
4	537	56.525358838687	73
4	537	56.525358838687	74
4	558	60.029353960574	75
4	558	60.029353960574	76
4	558	60.029353960574	77
4	579	61.294741333103	78
4	579	61.294741333103	79
4	579	61.294741333103	80
4	604	64.418482573527	81
4	604	64.418482573527	82
4	604	64.418482573527	83
4	628	67.617555473714	84
4	628	67.617555473714	85
4	628	67.617555473714	86
4	649	69.180111333144	87
4	649	69.180111333144	88
4	649	69.180111333144	89
4	667	70.550494445315	90
4	667	70.550494445315	91
4	667	70.550494445315	92
4	681	72.019095794061	93
4	681	72.019095794061	94
4	681	72.019095794061	95
4	700	73.479859188974	96
4	700	73.479859188974	97
4	700	73.479859188974	98
4	717	74.673255689499	99
4	717	74.673255689499	100
4	717	74.673255689499	101
4	736	76.593519263547	102
4	736	76.593519263547	103
4	736	76.593519263547	104
4	753	78.119990633054	105
4	753	78.119990633054	106
4	753	78.119990633054	107
4	771	79.625611128666	108
4	771	79.625611128666	109
4	771	79.625611128666	110
4	790	80.925095011975	111
4	790	80.925095011975	112
4	790	80.925095011975	113
4	808	82.23557638375	114
4	808	82.23557638375	115
4	808	82.23557638375	116
4	845	86.848953231677	117
4	845	86.848953231677	118
4	845	86.848953231677	119
4	903	94.531463382135	120
4	903	94.531463382135	121
4	903	94.531463382135	122
4	921	96.317827947796	123
4	921	96.317827947796	124
4	921	96.317827947796	125
4	935	97.543391042479	126
4	935	97.543391042479	127
4	935	97.543391042479	128
4	954	98.924244759232	129
4	954	98.924244759232	130
4	954	98.924244759232	131
4	975	100.246034858201	132
4	975	100.246034858201	133
4	975	100.246034858201	134
4	993	101.954297632313	135
4	993	101.954297632313	136
4	993	101.954297632313	137
4	1011	103.542305853068	138
4	1011	103.542305853068	139
4	1011	103.542305853068	140
4	1026	105.545465233852	141
4	1026	105.545465233852	142
4	1026	105.545465233852	143
4	1045	108.688463082731	144
4	1045	108.688463082731	145
4	1045	108.688463082731	146
4	1064	110.456794601894	147
4	1064	110.456794601894	148
4	1064	110.456794601894	149
4	1085	112.231120811488	150
4	1085	112.231120811488	151
4	1085	112.231120811488	152
4	1107	116.615774931306	153
4	1107	116.615774931306	154
4	1107	116.615774931306	155
4	1123	119.663042698171	156
4	1123	119.663042698171	157
4	1123	119.663042698171	158
4	1145	121.047660398235	159
4	1145	121.047660398235	160
4	1145	121.047660398235	161
4	1167	124.426215039954	162
4	1167	124.426215039954	163
4	1167	124.426215039954	164
4	1191	127.498650268285	165
4	1191	127.498650268285	166
4	1191	127.498650268285	167
4	1211	130.248471969473	168
4	1211	130.248471969473	169
4	1211	130.248471969473	170
4	1255	139.242988178865	171
4	1255	139.242988178865	172
4	1255	139.242988178865	173
4	1269	140.311768656867	174
4	1269	140.311768656867	175
4	1269	140.311768656867	176
4	1289	142.467962631847	177
4	1289	142.467962631847	178
4	1289	142.467962631847	179
4	1307	143.698225590096	180
4	1307	143.698225590096	181
4	1307	143.698225590096	182
4	1322	145.154678539565	183
4	1322	145.154678539565	184
4	1322	145.154678539565	185
4	1343	146.400406805767	186
4	1343	146.400406805767	187
4	1343	146.400406805767	188
4	1361	147.632878062625	189
4	1361	147.632878062625	190
4	1361	147.632878062625	191
4	1379	148.623874502184	192
4	1379	148.623874502184	193
4	1379	148.623874502184	194
4	1393	150.235323994277	195
4	1393	150.235323994277	196
4	1393	150.235323994277	197
4	1411	151.986103449778	198
4	1411	151.986103449778	199
4	1411	151.986103449778	200
4	1426	153.845435293343	201
4	1426	153.845435293343	202
4	1426	153.845435293343	203
4	1456	158.891809505237	204
4	1456	158.891809505237	205
4	1456	158.891809505237	206
4	1476	162.249219276736	207
4	1476	162.249219276736	208
4	1476	162.249219276736	209
4	1495	164.763894660598	210
4	1495	164.763894660598	211
4	1495	164.763894660598	212
4	1530	173.287360862455	213
4	1530	173.287360862455	214
4	1530	173.287360862455	215
4	1553	176.844107216784	216
4	1553	176.844107216784	217
4	1553	176.844107216784	218
4	1569	179.941673784543	219
4	1569	179.941673784543	220
4	1569	179.941673784543	221
4	1593	183.333074287026	222
4	1593	183.333074287026	223
4	1593	183.333074287026	224
4	1611	184.494409103588	225
4	1611	184.494409103588	226
4	1611	184.494409103588	227
4	1629	186.08796846923	228
4	1629	186.08796846923	229
4	1629	186.08796846923	230
4	1643	187.322039864122	231
4	1643	187.322039864122	232
4	1643	187.322039864122	233
4	1661	188.599645591075	234
4	1661	188.599645591075	235
4	1661	188.599645591075	236
4	1683	190.01733520137	237
4	1683	190.01733520137	238
4	1683	190.01733520137	239
4	1697	191.253421497378	240
4	1697	191.253421497378	241
4	1697	191.253421497378	242
4	1716	192.766806450172	243
4	1716	192.766806450172	244
4	1716	192.766806450172	245
4	1737	193.76715965359	246
4	1737	193.76715965359	247
4	1737	193.76715965359	248
4	1751	195.46354442746	249
4	1751	195.46354442746	250
4	1751	195.46354442746	251
4	1784	198.592740781254	252
4	1784	198.592740781254	253
4	1784	198.592740781254	254
4	1801	200.318162758083	255
4	1801	200.318162758083	256
4	1801	200.318162758083	257
4	1819	201.612588701797	258
4	1819	201.612588701797	259
4	1819	201.612588701797	260
4	1838	203.420159079464	261
4	1838	203.420159079464	262
4	1838	203.420159079464	263
4	1873	206.867041300409	264
4	1873	206.867041300409	265
4	1873	206.867041300409	266
4	1887	208.374881767277	267
4	1887	208.374881767277	268
4	1887	208.374881767277	269
4	1905	210.009578229241	270
4	1905	210.009578229241	271
4	1905	210.009578229241	272
4	1933	216.365778895563	273
4	1933	216.365778895563	274
4	1933	216.365778895563	275
4	1958	219.22619041235	276
4	1958	219.22619041235	277
4	1958	219.22619041235	278
4	1976	220.294453837922	279
4	1976	220.294453837922	280
4	1976	220.294453837922	281
4	1993	221.86605804104	282
4	1993	221.86605804104	283
4	1993	221.86605804104	284
4	2011	223.471589810517	285
4	2011	223.471589810517	286
4	2011	223.471589810517	287
4	2044	226.883479386168	288
4	2044	226.883479386168	289
4	2044	226.883479386168	290
4	2073	231.439181284957	291
4	2073	231.439181284957	292
4	2073	231.439181284957	293
4	2093	234.445460032689	294
4	2093	234.445460032689	295
4	2093	234.445460032689	296
4	2132	238.666709775635	297
4	2132	238.666709775635	298
4	2132	238.666709775635	299
5	28	2.192696506257	0
5	104	7.756840979497	1
5	121	11.139509127341	2
5	166	14.737950875413	3
5	184	16.688007109486	4
5	219	22.528323050461	5
5	240	23.606941326719	6
5	270	28.286942141904	7
5	328	36.055903796112	8
5	346	37.824870576115	9
5	378	41.656147536552	10
5	396	42.840906414837	11
5	438	46.946949272945	12
5	452	47.974438475252	13
5	474	49.239315855766	14
5	540	56.535358838687	15
5	564	60.039353960574	16
5	582	61.304741333103	17
5	610	64.428482573527	18
5	652	69.190111333144	19
5	670	70.560494445315	20
5	721	74.683255689499	21
5	742	76.603519263547	22
5	757	78.129990633054	23
5	796	80.935095011975	24
5	814	82.24557638375	25
5	848	86.858953231677	26
5	906	94.541463382135	27
5	924	96.327827947796	28
5	939	97.553391042479	29
5	960	98.934244759232	30
5	978	100.256034858201	31
5	996	101.964297632313	32
5	1014	103.552305853068	33
5	1049	108.698463082731	34
5	1070	110.466794601894	35
5	1088	112.241120811488	36
5	1148	121.057660398235	37
5	1258	139.252988178865	38
5	1272	140.321768656867	39
5	1292	142.477962631847	40
5	1310	143.708225590096	41
5	1346	146.410406805767	42
5	1382	148.633874502184	43
5	1414	151.996103449778	44
5	1432	153.855435293343	45
5	1482	162.259219276736	46
5	1498	164.773894660598	47
5	1536	173.297360862455	48
5	1556	176.854107216784	49
5	1572	179.951673784543	50
5	1596	183.343074287026	51
5	1614	184.504409103588	52
5	1647	187.332039864122	53
5	1665	188.609645591075	54
5	1686	190.02733520137	55
5	1700	191.263421497378	56
5	1740	193.77715965359	57
5	1755	195.47354442746	58
5	1790	198.602740781254	59
5	1805	200.328162758083	60
5	1822	201.622588701797	61
5	1844	203.430159079464	62
5	1876	206.877041300409	63
5	1891	208.384881767277	64
5	1909	210.019578229241	65
5	1936	216.375778895563	66
5	1964	219.23619041235	67
5	1982	220.304453837922	68
5	1996	221.87605804104	69
5	2015	223.481589810517	70
5	2050	226.893479386168	71
5	2096	234.455460032689	72
5	2138	238.676709775635	73

