version 2
run General-2-20231008-06:23:24-15638
attr configname General
attr datetime 20231008-06:23:24
attr experiment General
attr inifile omnetpp.ini
attr iterationvars ""
attr iterationvarsf ""
attr measurement ""
attr network Network1
attr processid 15638
attr repetition 2
attr replication #2
attr resultdir results
attr runnumber 2
attr seedset 2
param Network1.node[*].transmissionTime "uniform(1s, 2s)"
param Network1.node[*].delayTime "uniform(0.01s, 0.2s)"
param Network1.node[*].processingTime exponential(0.01s)
param Network1.node[*].lossProbability 0.25
param Reliability.node[*].transmissionTime "uniform(1s, 2s)"
param Reliability.node[*].delayTime "uniform(0.01s, 0.2s)"
param Reliability.node[*].processingTime exponential(0.01s)
param Reliability.node[*].lossProbability 0.0

vector 0 Network1.node[0] txVector ETV
vector 1 Network1.node[1] txVector ETV
vector 2 Network1.node[3] txVector ETV
vector 3 Network1.node[2] txVector ETV
vector 4 Network1.node[4] txVector ETV
vector 5 Network1.node[5] rxVector ETV
0	1	0.092839031499	0
0	3	1.277921112972	1
0	21	3.20946197656	2
0	39	5.027688698629	3
0	49	6.997321106279	4
0	55	8.491610874207	5
0	57	10.259102050699	6
0	75	11.836410120846	7
0	77	12.955894920062	8
0	95	14.104459700426	9
0	113	15.572302192002	10
0	115	17.00383996197	11
0	133	18.892143708439	12
0	135	20.654073707312	13
0	153	22.586702268123	14
0	155	24.315200770525	15
0	173	25.670954394405	16
0	191	27.082700835093	17
0	209	28.961902865459	18
0	227	30.068475399184	19
0	245	31.986194120971	20
0	247	33.92244216429	21
0	249	35.386184772262	22
0	259	37.238473732508	23
0	261	38.753332899668	24
0	279	40.633323250822	25
0	297	41.968417915068	26
0	303	43.514290618263	27
0	321	45.449326346181	28
0	339	46.7196803156	29
0	357	48.463542345696	30
0	375	50.312004348514	31
0	377	51.787543319417	32
0	379	52.952410461865	33
0	397	54.77986381228	34
0	415	56.221252438164	35
0	433	58.003885456145	36
0	451	59.864913133456	37
0	469	61.731093375262	38
0	487	62.881579839874	39
0	505	64.626618100347	40
0	507	66.352248179045	41
0	525	67.743222441076	42
0	527	69.093945981254	43
0	529	70.457240627165	44
0	547	71.793533598091	45
0	565	73.628499452043	46
0	579	74.669745403127	47
0	597	76.101878503821	48
0	615	77.233157726488	49
0	633	78.377578190313	50
0	651	80.337284185709	51
0	665	82.082823000401	52
0	683	83.85265719031	53
0	701	85.749061959116	54
0	715	87.067587599643	55
0	733	88.60594663119	56
0	743	90.550821225411	57
0	753	92.27103787127	58
0	771	93.472937373929	59
0	789	95.334913832154	60
0	807	96.465778303817	61
0	821	98.01970454284	62
0	823	100.019021458477	63
0	841	101.72792700354	64
0	859	103.031801305031	65
0	877	105.031371080102	66
0	879	106.647714351322	67
0	897	108.583933579055	68
0	915	109.776135719166	69
0	933	111.716298026516	70
0	935	113.076324347424	71
0	937	114.113412144844	72
0	955	115.759392676659	73
0	973	117.688741853245	74
0	991	119.198276352387	75
0	993	120.661513733927	76
0	1011	122.165535680966	77
0	1029	123.951337330991	78
0	1047	125.496498743554	79
0	1065	126.62492752589	80
0	1083	127.695417891272	81
0	1097	128.816258640743	82
0	1115	130.134971685956	83
0	1133	131.415162464387	84
0	1151	133.21439347767	85
0	1169	134.763569610908	86
0	1187	135.973522739268	87
0	1205	137.684689404226	88
0	1223	139.649948908731	89
0	1241	141.479149324137	90
0	1255	143.366813104616	91
0	1269	144.520233894016	92
0	1287	145.716584516938	93
0	1305	147.408324545964	94
0	1319	149.161681141488	95
0	1337	150.281296483025	96
0	1355	151.668301286891	97
0	1373	153.152491385367	98
0	1391	154.899858053558	99
0	1393	156.113099859579	100
0	1411	157.482091901608	101
0	1429	158.909626437601	102
0	1443	160.086645659076	103
0	1461	161.706099141173	104
0	1463	163.398571097774	105
0	1481	164.833626407913	106
0	1499	166.826902981398	107
0	1517	168.022364043181	108
0	1527	169.223386940097	109
0	1533	170.866567261999	110
0	1551	171.886716197494	111
0	1569	173.115021152671	112
0	1587	174.899210940597	113
0	1605	176.488602893909	114
0	1623	177.928807019505	115
0	1641	179.193659088823	116
0	1659	181.053389057533	117
0	1661	182.741029411803	118
0	1679	184.05320745452	119
0	1697	186.031427231633	120
0	1699	187.364322752475	121
0	1713	188.758432947348	122
0	1731	190.126818985461	123
0	1733	191.225870382755	124
0	1739	193.0615601896	125
0	1741	194.543143277538	126
0	1759	195.607726035423	127
0	1777	197.359378224022	128
0	1779	198.731722633138	129
0	1781	200.263898675346	130
0	1787	201.518992189567	131
0	1805	202.562332034826	132
0	1807	203.77826626973	133
0	1825	205.245291804911	134
0	1843	206.998317291976	135
0	1861	208.27564246861	136
0	1879	209.74749650575	137
0	1893	211.378097902767	138
0	1911	212.914261802116	139
0	1929	214.538762080732	140
0	1947	216.117234550898	141
0	1961	217.197179256256	142
0	1963	218.538764426268	143
0	1965	220.054545332461	144
0	1983	221.391044781094	145
0	1985	223.374316680029	146
0	2003	224.580064419208	147
0	2005	226.179853674972	148
0	2015	227.844595249759	149
0	2033	229.254794453055	150
0	2051	231.23290870806	151
0	2069	232.566151573572	152
0	2087	234.554372230561	153
0	2089	236.022168396523	154
0	2107	237.879471334645	155
0	2125	239.566233072912	156
1	5	1.317434556699	0
1	5	1.317434556699	1
1	5	1.317434556699	2
1	23	3.230951331677	3
1	23	3.230951331677	4
1	23	3.230951331677	5
1	41	5.041212943669	6
1	41	5.041212943669	7
1	41	5.041212943669	8
1	51	7.015662803448	9
1	51	7.015662803448	10
1	51	7.015662803448	11
1	59	10.270939155681	12
1	59	10.270939155681	13
1	59	10.270939155681	14
1	79	12.985019356886	15
1	79	12.985019356886	16
1	79	12.985019356886	17
1	97	14.117664139764	18
1	97	14.117664139764	19
1	97	14.117664139764	20
1	117	17.042174957306	21
1	117	17.042174957306	22
1	117	17.042174957306	23
1	137	20.676494513033	24
1	137	20.676494513033	25
1	137	20.676494513033	26
1	157	24.327595192609	27
1	157	24.327595192609	28
1	157	24.327595192609	29
1	175	25.690919717602	30
1	175	25.690919717602	31
1	175	25.690919717602	32
1	193	27.10167788931	33
1	193	27.10167788931	34
1	193	27.10167788931	35
1	211	28.97650114193	36
1	211	28.97650114193	37
1	211	28.97650114193	38
1	229	30.078883736162	39
1	229	30.078883736162	40
1	229	30.078883736162	41
1	251	35.398577087108	42
1	251	35.398577087108	43
1	251	35.398577087108	44
1	263	38.778694398852	45
1	263	38.778694398852	46
1	263	38.778694398852	47
1	281	40.645086988814	48
1	281	40.645086988814	49
1	281	40.645086988814	50
1	299	41.97860230501	51
1	299	41.97860230501	52
1	299	41.97860230501	53
1	305	43.529243187405	54
1	305	43.529243187405	55
1	305	43.529243187405	56
1	323	45.459352205332	57
1	323	45.459352205332	58
1	323	45.459352205332	59
1	341	46.743711911527	60
1	341	46.743711911527	61
1	341	46.743711911527	62
1	359	48.476328469483	63
1	359	48.476328469483	64
1	359	48.476328469483	65
1	381	52.970169182561	66
1	381	52.970169182561	67
1	381	52.970169182561	68
1	399	54.80941613076	69
1	399	54.80941613076	70
1	399	54.80941613076	71
1	417	56.242258395718	72
1	417	56.242258395718	73
1	417	56.242258395718	74
1	435	58.017182448266	75
1	435	58.017182448266	76
1	435	58.017182448266	77
1	453	59.911409477086	78
1	453	59.911409477086	79
1	453	59.911409477086	80
1	471	61.743010342814	81
1	471	61.743010342814	82
1	471	61.743010342814	83
1	489	62.895729893662	84
1	489	62.895729893662	85
1	489	62.895729893662	86
1	509	66.367135289689	87
1	509	66.367135289689	88
1	509	66.367135289689	89
1	531	70.472452391115	90
1	531	70.472452391115	91
1	531	70.472452391115	92
1	549	71.804594713371	93
1	549	71.804594713371	94
1	549	71.804594713371	95
1	567	73.641783203319	96
1	567	73.641783203319	97
1	567	73.641783203319	98
1	581	74.683134492717	99
1	581	74.683134492717	100
1	581	74.683134492717	101
1	599	76.140820894001	102
1	599	76.140820894001	103
1	599	76.140820894001	104
1	617	77.261282055244	105
1	617	77.261282055244	106
1	617	77.261282055244	107
1	635	78.407821549194	108
1	635	78.407821549194	109
1	635	78.407821549194	110
1	653	80.351829678898	111
1	653	80.351829678898	112
1	653	80.351829678898	113
1	667	82.108705405829	114
1	667	82.108705405829	115
1	667	82.108705405829	116
1	685	83.879529361558	117
1	685	83.879529361558	118
1	685	83.879529361558	119
1	703	85.769602952846	120
1	703	85.769602952846	121
1	703	85.769602952846	122
1	717	87.100840467982	123
1	717	87.100840467982	124
1	717	87.100840467982	125
1	735	88.63085975047	126
1	735	88.63085975047	127
1	735	88.63085975047	128
1	745	90.573235226994	129
1	745	90.573235226994	130
1	745	90.573235226994	131
1	755	92.30479582176	132
1	755	92.30479582176	133
1	755	92.30479582176	134
1	773	93.485610434801	135
1	773	93.485610434801	136
1	773	93.485610434801	137
1	791	95.347321066977	138
1	791	95.347321066977	139
1	791	95.347321066977	140
1	809	96.489438326395	141
1	809	96.489438326395	142
1	809	96.489438326395	143
1	825	100.036728369685	144
1	825	100.036728369685	145
1	825	100.036728369685	146
1	843	101.740178998204	147
1	843	101.740178998204	148
1	843	101.740178998204	149
1	861	103.047992983772	150
1	861	103.047992983772	151
1	861	103.047992983772	152
1	881	106.659373331873	153
1	881	106.659373331873	154
1	881	106.659373331873	155
1	899	108.595235097797	156
1	899	108.595235097797	157
1	899	108.595235097797	158
1	917	109.793632016664	159
1	917	109.793632016664	160
1	917	109.793632016664	161
1	939	114.128106745166	162
1	939	114.128106745166	163
1	939	114.128106745166	164
1	957	115.769635036951	165
1	957	115.769635036951	166
1	957	115.769635036951	167
1	975	117.701629130855	168
1	975	117.701629130855	169
1	975	117.701629130855	170
1	995	120.687846872881	171
1	995	120.687846872881	172
1	995	120.687846872881	173
1	1013	122.180570573514	174
1	1013	122.180570573514	175
1	1013	122.180570573514	176
1	1031	123.973877902465	177
1	1031	123.973877902465	178
1	1031	123.973877902465	179
1	1049	125.515432418793	180
1	1049	125.515432418793	181
1	1049	125.515432418793	182
1	1067	126.638295601963	183
1	1067	126.638295601963	184
1	1067	126.638295601963	185
1	1085	127.70777001994	186
1	1085	127.70777001994	187
1	1085	127.70777001994	188
1	1099	128.830321750123	189
1	1099	128.830321750123	190
1	1099	128.830321750123	191
1	1117	130.148108007287	192
1	1117	130.148108007287	193
1	1117	130.148108007287	194
1	1135	131.42716597878	195
1	1135	131.42716597878	196
1	1135	131.42716597878	197
1	1153	133.230599587863	198
1	1153	133.230599587863	199
1	1153	133.230599587863	200
1	1171	134.782957808111	201
1	1171	134.782957808111	202
1	1171	134.782957808111	203
1	1189	136.017638850656	204
1	1189	136.017638850656	205
1	1189	136.017638850656	206
1	1207	137.703302775732	207
1	1207	137.703302775732	208
1	1207	137.703302775732	209
1	1225	139.669693242079	210
1	1225	139.669693242079	211
1	1225	139.669693242079	212
1	1243	141.498932082125	213
1	1243	141.498932082125	214
1	1243	141.498932082125	215
1	1257	143.377204185908	216
1	1257	143.377204185908	217
1	1257	143.377204185908	218
1	1271	144.542853215614	219
1	1271	144.542853215614	220
1	1271	144.542853215614	221
1	1289	145.738951846798	222
1	1289	145.738951846798	223
1	1289	145.738951846798	224
1	1307	147.420898319669	225
1	1307	147.420898319669	226
1	1307	147.420898319669	227
1	1321	149.206147016646	228
1	1321	149.206147016646	229
1	1321	149.206147016646	230
1	1339	150.3093079466	231
1	1339	150.3093079466	232
1	1339	150.3093079466	233
1	1357	151.68887826938	234
1	1357	151.68887826938	235
1	1357	151.68887826938	236
1	1375	153.169447234217	237
1	1375	153.169447234217	238
1	1375	153.169447234217	239
1	1395	156.141912751761	240
1	1395	156.141912751761	241
1	1395	156.141912751761	242
1	1413	157.499710835726	243
1	1413	157.499710835726	244
1	1413	157.499710835726	245
1	1431	158.92066202126	246
1	1431	158.92066202126	247
1	1431	158.92066202126	248
1	1445	160.09779269046	249
1	1445	160.09779269046	250
1	1445	160.09779269046	251
1	1465	163.417093567108	252
1	1465	163.417093567108	253
1	1465	163.417093567108	254
1	1483	164.8535500655	255
1	1483	164.8535500655	256
1	1483	164.8535500655	257
1	1501	166.840829406469	258
1	1501	166.840829406469	259
1	1501	166.840829406469	260
1	1519	168.037240971214	261
1	1519	168.037240971214	262
1	1519	168.037240971214	263
1	1529	169.239278822771	264
1	1529	169.239278822771	265
1	1529	169.239278822771	266
1	1535	170.884568732058	267
1	1535	170.884568732058	268
1	1535	170.884568732058	269
1	1553	171.917072786559	270
1	1553	171.917072786559	271
1	1553	171.917072786559	272
1	1571	173.134252928471	273
1	1571	173.134252928471	274
1	1571	173.134252928471	275
1	1589	174.927558328191	276
1	1589	174.927558328191	277
1	1589	174.927558328191	278
1	1607	176.506170936945	279
1	1607	176.506170936945	280
1	1607	176.506170936945	281
1	1625	177.942226964027	282
1	1625	177.942226964027	283
1	1625	177.942226964027	284
1	1643	179.208666999872	285
1	1643	179.208666999872	286
1	1643	179.208666999872	287
1	1663	182.760769149339	288
1	1663	182.760769149339	289
1	1663	182.760769149339	290
1	1681	184.080481603873	291
1	1681	184.080481603873	292
1	1681	184.080481603873	293
1	1701	187.382166145571	294
1	1701	187.382166145571	295
1	1701	187.382166145571	296
1	1715	188.774809914655	297
1	1715	188.774809914655	298
1	1715	188.774809914655	299
1	1735	191.238739994091	300
1	1735	191.238739994091	301
1	1735	191.238739994091	302
1	1743	194.566049544291	303
1	1743	194.566049544291	304
1	1743	194.566049544291	305
1	1761	195.635442340313	306
1	1761	195.635442340313	307
1	1761	195.635442340313	308
1	1783	200.288823015691	309
1	1783	200.288823015691	310
1	1783	200.288823015691	311
1	1789	201.531524675791	312
1	1789	201.531524675791	313
1	1789	201.531524675791	314
1	1809	203.793615162519	315
1	1809	203.793615162519	316
1	1809	203.793615162519	317
1	1827	205.255565680403	318
1	1827	205.255565680403	319
1	1827	205.255565680403	320
1	1845	207.033622441066	321
1	1845	207.033622441066	322
1	1845	207.033622441066	323
1	1863	208.295474194331	324
1	1863	208.295474194331	325
1	1863	208.295474194331	326
1	1881	209.7676368241	327
1	1881	209.7676368241	328
1	1881	209.7676368241	329
1	1895	211.39728039411	330
1	1895	211.39728039411	331
1	1895	211.39728039411	332
1	1913	212.992315875394	333
1	1913	212.992315875394	334
1	1913	212.992315875394	335
1	1931	214.576416890821	336
1	1931	214.576416890821	337
1	1931	214.576416890821	338
1	1949	216.129434515099	339
1	1949	216.129434515099	340
1	1949	216.129434515099	341
1	1967	220.072473949114	342
1	1967	220.072473949114	343
1	1967	220.072473949114	344
1	1987	223.425206126191	345
1	1987	223.425206126191	346
1	1987	223.425206126191	347
1	2007	226.203745889179	348
1	2007	226.203745889179	349
1	2007	226.203745889179	350
1	2017	227.858758843581	351
1	2017	227.858758843581	352
1	2017	227.858758843581	353
1	2035	229.276581675511	354
1	2035	229.276581675511	355
1	2035	229.276581675511	356
1	2053	231.273365141664	357
1	2053	231.273365141664	358
1	2053	231.273365141664	359
1	2071	232.582112687801	360
1	2071	232.582112687801	361
1	2071	232.582112687801	362
1	2091	236.03425814859	363
1	2091	236.03425814859	364
1	2091	236.03425814859	365
1	2109	237.89616828385	366
1	2109	237.89616828385	367
1	2109	237.89616828385	368
2	9	1.331444330932	0
2	9	1.331444330932	1
2	9	1.331444330932	2
2	27	3.242990132847	3
2	27	3.242990132847	4
2	27	3.242990132847	5
2	64	10.291166972499	6
2	64	10.291166972499	7
2	64	10.291166972499	8
2	88	13.020324500618	9
2	88	13.020324500618	10
2	88	13.020324500618	11
2	101	14.128520752697	12
2	101	14.128520752697	13
2	101	14.128520752697	14
2	121	17.061383396085	15
2	121	17.061383396085	16
2	121	17.061383396085	17
2	141	20.69040335211	18
2	141	20.69040335211	19
2	141	20.69040335211	20
2	161	24.337854023006	21
2	161	24.337854023006	22
2	161	24.337854023006	23
2	180	25.704677691248	24
2	180	25.704677691248	25
2	180	25.704677691248	26
2	202	27.133019167082	27
2	202	27.133019167082	28
2	202	27.133019167082	29
2	215	29.002962738761	30
2	215	29.002962738761	31
2	215	29.002962738761	32
2	233	30.090828230114	33
2	233	30.090828230114	34
2	233	30.090828230114	35
2	255	35.409552071757	36
2	255	35.409552071757	37
2	255	35.409552071757	38
2	268	38.795069818123	39
2	268	38.795069818123	40
2	268	38.795069818123	41
2	285	40.673197491351	42
2	285	40.673197491351	43
2	285	40.673197491351	44
2	310	43.539922375499	45
2	310	43.539922375499	46
2	310	43.539922375499	47
2	328	45.478903939187	48
2	328	45.478903939187	49
2	328	45.478903939187	50
2	346	46.755508192497	51
2	346	46.755508192497	52
2	346	46.755508192497	53
2	364	48.500126583634	54
2	364	48.500126583634	55
2	364	48.500126583634	56
2	385	52.983499586342	57
2	385	52.983499586342	58
2	385	52.983499586342	59
2	403	54.821885637601	60
2	403	54.821885637601	61
2	403	54.821885637601	62
2	421	56.269187631985	63
2	421	56.269187631985	64
2	421	56.269187631985	65
2	439	58.02795407561	66
2	439	58.02795407561	67
2	439	58.02795407561	68
2	457	59.9341279809	69
2	457	59.9341279809	70
2	457	59.9341279809	71
2	475	61.753143597056	72
2	475	61.753143597056	73
2	475	61.753143597056	74
2	493	62.908556886617	75
2	493	62.908556886617	76
2	493	62.908556886617	77
2	513	66.377960828493	78
2	513	66.377960828493	79
2	513	66.377960828493	80
2	535	70.483831743397	81
2	535	70.483831743397	82
2	535	70.483831743397	83
2	561	71.859568724754	84
2	561	71.859568724754	85
2	561	71.859568724754	86
2	575	73.672255608992	87
2	575	73.672255608992	88
2	575	73.672255608992	89
2	585	74.706118364155	90
2	585	74.706118364155	91
2	585	74.706118364155	92
2	603	76.162197172308	93
2	603	76.162197172308	94
2	603	76.162197172308	95
2	629	77.355781683905	96
2	629	77.355781683905	97
2	629	77.355781683905	98
2	639	78.430021919324	99
2	639	78.430021919324	100
2	639	78.430021919324	101
2	658	80.366060573432	102
2	658	80.366060573432	103
2	658	80.366060573432	104
2	671	82.12797237364	105
2	671	82.12797237364	106
2	671	82.12797237364	107
2	689	83.89987239847	108
2	689	83.89987239847	109
2	689	83.89987239847	110
2	707	85.779621797167	111
2	707	85.779621797167	112
2	707	85.779621797167	113
2	722	87.117873694191	114
2	722	87.117873694191	115
2	722	87.117873694191	116
2	749	90.593495526002	117
2	749	90.593495526002	118
2	749	90.593495526002	119
2	759	92.318749805743	120
2	759	92.318749805743	121
2	759	92.318749805743	122
2	781	93.511864881671	123
2	781	93.511864881671	124
2	781	93.511864881671	125
2	796	95.358282172582	126
2	796	95.358282172582	127
2	796	95.358282172582	128
2	817	96.528508059907	129
2	817	96.528508059907	130
2	817	96.528508059907	131
2	829	100.047656644744	132
2	829	100.047656644744	133
2	829	100.047656644744	134
2	847	101.758775967767	135
2	847	101.758775967767	136
2	847	101.758775967767	137
2	873	103.086326141906	138
2	873	103.086326141906	139
2	873	103.086326141906	140
2	886	106.680746634926	141
2	886	106.680746634926	142
2	886	106.680746634926	143
2	904	108.61092864192	144
2	904	108.61092864192	145
2	904	108.61092864192	146
2	925	109.82294913008	147
2	925	109.82294913008	148
2	925	109.82294913008	149
2	943	114.141752496632	150
2	943	114.141752496632	151
2	943	114.141752496632	152
2	961	115.780970204086	153
2	961	115.780970204086	154
2	961	115.780970204086	155
2	980	117.726368501636	156
2	980	117.726368501636	157
2	980	117.726368501636	158
2	999	120.701893123682	159
2	999	120.701893123682	160
2	999	120.701893123682	161
2	1025	122.220995337999	162
2	1025	122.220995337999	163
2	1025	122.220995337999	164
2	1036	123.987529541868	165
2	1036	123.987529541868	166
2	1036	123.987529541868	167
2	1053	125.534018386302	168
2	1053	125.534018386302	169
2	1053	125.534018386302	170
2	1075	126.665167772389	171
2	1075	126.665167772389	172
2	1075	126.665167772389	173
2	1089	127.731769362603	174
2	1089	127.731769362603	175
2	1089	127.731769362603	176
2	1103	128.86908655807	177
2	1103	128.86908655807	178
2	1103	128.86908655807	179
2	1126	130.178936186793	180
2	1126	130.178936186793	181
2	1126	130.178936186793	182
2	1139	131.443066510612	183
2	1139	131.443066510612	184
2	1139	131.443066510612	185
2	1157	133.244220933174	186
2	1157	133.244220933174	187
2	1157	133.244220933174	188
2	1175	134.799050134727	189
2	1175	134.799050134727	190
2	1175	134.799050134727	191
2	1193	136.032477915356	192
2	1193	136.032477915356	193
2	1193	136.032477915356	194
2	1211	137.713844696278	195
2	1211	137.713844696278	196
2	1211	137.713844696278	197
2	1230	139.680989757181	198
2	1230	139.680989757181	199
2	1230	139.680989757181	200
2	1248	141.514776823392	201
2	1248	141.514776823392	202
2	1248	141.514776823392	203
2	1265	143.418709450572	204
2	1265	143.418709450572	205
2	1265	143.418709450572	206
2	1280	144.584183192593	207
2	1280	144.584183192593	208
2	1280	144.584183192593	209
2	1294	145.757852708804	210
2	1294	145.757852708804	211
2	1294	145.757852708804	212
2	1311	147.432059306735	213
2	1311	147.432059306735	214
2	1311	147.432059306735	215
2	1326	149.225634094983	216
2	1326	149.225634094983	217
2	1326	149.225634094983	218
2	1344	150.331392506604	219
2	1344	150.331392506604	220
2	1344	150.331392506604	221
2	1361	151.700144655011	222
2	1361	151.700144655011	223
2	1361	151.700144655011	224
2	1383	153.200420548447	225
2	1383	153.200420548447	226
2	1383	153.200420548447	227
2	1404	156.169436886883	228
2	1404	156.169436886883	229
2	1404	156.169436886883	230
2	1422	157.532869576494	231
2	1422	157.532869576494	232
2	1422	157.532869576494	233
2	1435	158.93086981125	234
2	1435	158.93086981125	235
2	1435	158.93086981125	236
2	1453	160.156401552309	237
2	1453	160.156401552309	238
2	1453	160.156401552309	239
2	1473	163.447129080776	240
2	1473	163.447129080776	241
2	1473	163.447129080776	242
2	1492	164.920054203398	243
2	1492	164.920054203398	244
2	1492	164.920054203398	245
2	1513	166.881437089065	246
2	1513	166.881437089065	247
2	1513	166.881437089065	248
2	1523	168.048983886619	249
2	1523	168.048983886619	250
2	1523	168.048983886619	251
2	1539	170.900721175633	252
2	1539	170.900721175633	253
2	1539	170.900721175633	254
2	1557	171.934901818677	255
2	1557	171.934901818677	256
2	1557	171.934901818677	257
2	1579	173.159754452189	258
2	1579	173.159754452189	259
2	1579	173.159754452189	260
2	1593	174.940821901948	261
2	1593	174.940821901948	262
2	1593	174.940821901948	263
2	1615	176.530785157115	264
2	1615	176.530785157115	265
2	1615	176.530785157115	266
2	1637	177.996936591295	267
2	1637	177.996936591295	268
2	1637	177.996936591295	269
2	1652	179.231360708042	270
2	1652	179.231360708042	271
2	1652	179.231360708042	272
2	1667	182.773717818278	273
2	1667	182.773717818278	274
2	1667	182.773717818278	275
2	1693	184.133852376882	276
2	1693	184.133852376882	277
2	1693	184.133852376882	278
2	1705	187.406983165406	279
2	1705	187.406983165406	280
2	1705	187.406983165406	281
2	1719	188.786390812228	282
2	1719	188.786390812228	283
2	1719	188.786390812228	284
2	1748	194.581165373463	285
2	1748	194.581165373463	286
2	1748	194.581165373463	287
2	1766	195.65647648342	288
2	1766	195.65647648342	289
2	1766	195.65647648342	290
2	1793	201.559923685996	291
2	1793	201.559923685996	292
2	1793	201.559923685996	293
2	1814	203.811127302002	294
2	1814	203.811127302002	295
2	1814	203.811127302002	296
2	1831	205.269176042358	297
2	1831	205.269176042358	298
2	1831	205.269176042358	299
2	1853	207.057913965213	300
2	1853	207.057913965213	301
2	1853	207.057913965213	302
2	1867	208.30719172969	303
2	1867	208.30719172969	304
2	1867	208.30719172969	305
2	1889	209.800498427454	306
2	1889	209.800498427454	307
2	1889	209.800498427454	308
2	1900	211.418331922383	309
2	1900	211.418331922383	310
2	1900	211.418331922383	311
2	1917	213.008015396839	312
2	1917	213.008015396839	313
2	1917	213.008015396839	314
2	1935	214.589968425044	315
2	1935	214.589968425044	316
2	1935	214.589968425044	317
2	1953	216.144070536009	318
2	1953	216.144070536009	319
2	1953	216.144070536009	320
2	1972	220.084632028851	321
2	1972	220.084632028851	322
2	1972	220.084632028851	323
2	1999	223.491481064525	324
2	1999	223.491481064525	325
2	1999	223.491481064525	326
2	2029	227.915212236628	327
2	2029	227.915212236628	328
2	2029	227.915212236628	329
2	2040	229.296109646664	330
2	2040	229.296109646664	331
2	2040	229.296109646664	332
2	2057	231.2834422752	333
2	2057	231.2834422752	334
2	2057	231.2834422752	335
2	2080	232.60704249527	336
2	2080	232.60704249527	337
2	2080	232.60704249527	338
2	2096	236.055365923549	339
2	2096	236.055365923549	340
2	2096	236.055365923549	341
2	2117	237.927748578872	342
2	2117	237.927748578872	343
2	2117	237.927748578872	344
3	10	1.332888171871	0
3	10	1.332888171871	1
3	10	1.332888171871	2
3	28	3.24815812129	3
3	28	3.24815812129	4
3	28	3.24815812129	5
3	45	5.05680124543	6
3	45	5.05680124543	7
3	45	5.05680124543	8
3	63	10.283192405307	9
3	63	10.283192405307	10
3	63	10.283192405307	11
3	83	13.001950995973	12
3	83	13.001950995973	13
3	83	13.001950995973	14
3	102	14.135521330314	15
3	102	14.135521330314	16
3	102	14.135521330314	17
3	122	17.068282262309	18
3	122	17.068282262309	19
3	122	17.068282262309	20
3	142	20.693506315408	21
3	142	20.693506315408	22
3	142	20.693506315408	23
3	162	24.346334329415	24
3	162	24.346334329415	25
3	162	24.346334329415	26
3	179	25.702116297952	27
3	179	25.702116297952	28
3	179	25.702116297952	29
3	197	27.113546935324	30
3	197	27.113546935324	31
3	197	27.113546935324	32
3	220	29.017212856505	33
3	220	29.017212856505	34
3	220	29.017212856505	35
3	234	30.098653786751	36
3	234	30.098653786751	37
3	234	30.098653786751	38
3	267	38.792057573591	39
3	267	38.792057573591	40
3	267	38.792057573591	41
3	289	40.69673595839	42
3	289	40.69673595839	43
3	289	40.69673595839	44
3	309	43.539779544861	45
3	309	43.539779544861	46
3	309	43.539779544861	47
3	327	45.472783120732	48
3	327	45.472783120732	49
3	327	45.472783120732	50
3	345	46.754145467612	51
3	345	46.754145467612	52
3	345	46.754145467612	53
3	363	48.492895815043	54
3	363	48.492895815043	55
3	363	48.492895815043	56
3	386	52.99101532342	57
3	386	52.99101532342	58
3	386	52.99101532342	59
3	404	54.826470086188	60
3	404	54.826470086188	61
3	404	54.826470086188	62
3	425	56.280580233769	63
3	425	56.280580233769	64
3	425	56.280580233769	65
3	443	58.040258195609	66
3	443	58.040258195609	67
3	443	58.040258195609	68
3	458	59.942664085728	69
3	458	59.942664085728	70
3	458	59.942664085728	71
3	483	61.779110021578	72
3	483	61.779110021578	73
3	483	61.779110021578	74
3	501	62.945095652269	75
3	501	62.945095652269	76
3	501	62.945095652269	77
3	514	66.379067790525	78
3	514	66.379067790525	79
3	514	66.379067790525	80
3	540	70.500327570842	81
3	540	70.500327570842	82
3	540	70.500327570842	83
3	553	71.818506646501	84
3	553	71.818506646501	85
3	553	71.818506646501	86
3	571	73.662025823181	87
3	571	73.662025823181	88
3	571	73.662025823181	89
3	593	74.740088113906	90
3	593	74.740088113906	91
3	593	74.740088113906	92
3	607	76.174390733675	93
3	607	76.174390733675	94
3	607	76.174390733675	95
3	621	77.29464307658	96
3	621	77.29464307658	97
3	621	77.29464307658	98
3	643	78.442866138265	99
3	643	78.442866138265	100
3	643	78.442866138265	101
3	657	80.363701237476	102
3	657	80.363701237476	103
3	657	80.363701237476	104
3	676	82.144212547268	105
3	676	82.144212547268	106
3	676	82.144212547268	107
3	690	83.901217087383	108
3	690	83.901217087383	109
3	690	83.901217087383	110
3	721	87.113650765636	111
3	721	87.113650765636	112
3	721	87.113650765636	113
3	739	88.650775537695	114
3	739	88.650775537695	115
3	739	88.650775537695	116
3	763	92.331572010453	117
3	763	92.331572010453	118
3	763	92.331572010453	119
3	777	93.498711428096	120
3	777	93.498711428096	121
3	777	93.498711428096	122
3	795	95.357510430096	123
3	795	95.357510430096	124
3	795	95.357510430096	125
3	813	96.514866803064	126
3	813	96.514866803064	127
3	813	96.514866803064	128
3	833	100.062315494273	129
3	833	100.062315494273	130
3	833	100.062315494273	131
3	851	101.782003006793	132
3	851	101.782003006793	133
3	851	101.782003006793	134
3	865	103.060529028344	135
3	865	103.060529028344	136
3	865	103.060529028344	137
3	885	106.673968373032	138
3	885	106.673968373032	139
3	885	106.673968373032	140
3	903	108.609899540254	141
3	903	108.609899540254	142
3	903	108.609899540254	143
3	921	109.809661747961	144
3	921	109.809661747961	145
3	921	109.809661747961	146
3	951	114.17613392815	147
3	951	114.17613392815	148
3	951	114.17613392815	149
3	966	115.801091708579	150
3	966	115.801091708579	151
3	966	115.801091708579	152
3	979	117.723973147731	153
3	979	117.723973147731	154
3	979	117.723973147731	155
3	1003	120.714173128003	156
3	1003	120.714173128003	157
3	1003	120.714173128003	158
3	1017	122.192410440399	159
3	1017	122.192410440399	160
3	1017	122.192410440399	161
3	1035	123.985394755436	162
3	1035	123.985394755436	163
3	1035	123.985394755436	164
3	1058	125.546770181799	165
3	1058	125.546770181799	166
3	1058	125.546770181799	167
3	1071	126.654725945075	168
3	1071	126.654725945075	169
3	1071	126.654725945075	170
3	1090	127.734658636807	171
3	1090	127.734658636807	172
3	1090	127.734658636807	173
3	1107	128.879999552213	174
3	1107	128.879999552213	175
3	1107	128.879999552213	176
3	1121	130.160106202233	177
3	1121	130.160106202233	178
3	1121	130.160106202233	179
3	1140	131.446971273596	180
3	1140	131.446971273596	181
3	1140	131.446971273596	182
3	1161	133.25427681215	183
3	1161	133.25427681215	184
3	1161	133.25427681215	185
3	1176	134.801710843222	186
3	1176	134.801710843222	187
3	1176	134.801710843222	188
3	1194	136.039098023813	189
3	1194	136.039098023813	190
3	1194	136.039098023813	191
3	1212	137.718092271416	192
3	1212	137.718092271416	193
3	1212	137.718092271416	194
3	1229	139.680854175314	195
3	1229	139.680854175314	196
3	1229	139.680854175314	197
3	1247	141.510131764021	198
3	1247	141.510131764021	199
3	1247	141.510131764021	200
3	1261	143.402421861533	201
3	1261	143.402421861533	202
3	1261	143.402421861533	203
3	1275	144.570386795743	204
3	1275	144.570386795743	205
3	1275	144.570386795743	206
3	1293	145.750017792889	207
3	1293	145.750017792889	208
3	1293	145.750017792889	209
3	1315	147.446745683984	210
3	1315	147.446745683984	211
3	1315	147.446745683984	212
3	1325	149.222481993481	213
3	1325	149.222481993481	214
3	1325	149.222481993481	215
3	1343	150.326430840926	216
3	1343	150.326430840926	217
3	1343	150.326430840926	218
3	1362	151.70311276097	219
3	1362	151.70311276097	220
3	1362	151.70311276097	221
3	1379	153.187048740567	222
3	1379	153.187048740567	223
3	1379	153.187048740567	224
3	1399	156.152916676148	225
3	1399	156.152916676148	226
3	1399	156.152916676148	227
3	1417	157.512299555909	228
3	1417	157.512299555909	229
3	1417	157.512299555909	230
3	1449	160.122060462744	231
3	1449	160.122060462744	232
3	1449	160.122060462744	233
3	1469	163.430806739635	234
3	1469	163.430806739635	235
3	1469	163.430806739635	236
3	1487	164.893879413021	237
3	1487	164.893879413021	238
3	1487	164.893879413021	239
3	1505	166.856635537216	240
3	1505	166.856635537216	241
3	1505	166.856635537216	242
3	1544	170.922928593576	243
3	1544	170.922928593576	244
3	1544	170.922928593576	245
3	1561	171.952885125587	246
3	1561	171.952885125587	247
3	1561	171.952885125587	248
3	1575	173.145529906049	249
3	1575	173.145529906049	250
3	1575	173.145529906049	251
3	1597	174.957085041424	252
3	1597	174.957085041424	253
3	1597	174.957085041424	254
3	1611	176.51902150064	255
3	1611	176.51902150064	256
3	1611	176.51902150064	257
3	1629	177.957949485042	258
3	1629	177.957949485042	259
3	1629	177.957949485042	260
3	1647	179.218864321334	261
3	1647	179.218864321334	262
3	1647	179.218864321334	263
3	1671	182.785708890684	264
3	1671	182.785708890684	265
3	1671	182.785708890684	266
3	1685	184.098642913858	267
3	1685	184.098642913858	268
3	1685	184.098642913858	269
3	1727	188.816907976483	270
3	1727	188.816907976483	271
3	1727	188.816907976483	272
3	1747	194.579350896347	273
3	1747	194.579350896347	274
3	1747	194.579350896347	275
3	1765	195.646561299085	276
3	1765	195.646561299085	277
3	1765	195.646561299085	278
3	1797	201.571645757671	279
3	1797	201.571645757671	280
3	1797	201.571645757671	281
3	1813	203.805003992455	282
3	1813	203.805003992455	283
3	1813	203.805003992455	284
3	1832	205.276459892884	285
3	1832	205.276459892884	286
3	1832	205.276459892884	287
3	1849	207.045507507485	288
3	1849	207.045507507485	289
3	1849	207.045507507485	290
3	1868	208.309620800085	291
3	1868	208.309620800085	292
3	1868	208.309620800085	293
3	1885	209.785005005049	294
3	1885	209.785005005049	295
3	1885	209.785005005049	296
3	1899	211.412398036148	297
3	1899	211.412398036148	298
3	1899	211.412398036148	299
3	1921	213.019421609465	300
3	1921	213.019421609465	301
3	1921	213.019421609465	302
3	1943	214.631134094617	303
3	1943	214.631134094617	304
3	1943	214.631134094617	305
3	1957	216.16151389623	306
3	1957	216.16151389623	307
3	1957	216.16151389623	308
3	1971	220.084385993984	309
3	1971	220.084385993984	310
3	1971	220.084385993984	311
3	1991	223.444331720082	312
3	1991	223.444331720082	313
3	1991	223.444331720082	314
3	2011	226.223785507533	315
3	2011	226.223785507533	316
3	2011	226.223785507533	317
3	2021	227.870887187804	318
3	2021	227.870887187804	319
3	2021	227.870887187804	320
3	2039	229.287084553946	321
3	2039	229.287084553946	322
3	2039	229.287084553946	323
3	2058	231.292386973913	324
3	2058	231.292386973913	325
3	2058	231.292386973913	326
3	2075	232.596068236004	327
3	2075	232.596068236004	328
3	2075	232.596068236004	329
3	2095	236.046375987473	330
3	2095	236.046375987473	331
3	2095	236.046375987473	332
3	2113	237.91220604084	333
3	2113	237.91220604084	334
3	2113	237.91220604084	335
4	17	1.351101004583	0
4	17	1.351101004583	1
4	17	1.351101004583	2
4	35	3.272229927159	3
4	35	3.272229927159	4
4	35	3.272229927159	5
4	71	10.308947106515	6
4	71	10.308947106515	7
4	71	10.308947106515	8
4	87	13.016130629689	9
4	87	13.016130629689	10
4	87	13.016130629689	11
4	109	14.157548814037	12
4	109	14.157548814037	13
4	109	14.157548814037	14
4	126	17.073237364239	15
4	126	17.073237364239	16
4	126	17.073237364239	17
4	149	20.705295459356	18
4	149	20.705295459356	19
4	149	20.705295459356	20
4	166	24.352756468867	21
4	166	24.352756468867	22
4	166	24.352756468867	23
4	187	25.730946183851	24
4	187	25.730946183851	25
4	187	25.730946183851	26
4	201	27.132102503253	27
4	201	27.132102503253	28
4	201	27.132102503253	29
4	219	29.016024981663	30
4	219	29.016024981663	31
4	219	29.016024981663	32
4	238	30.107547297119	33
4	238	30.107547297119	34
4	238	30.107547297119	35
4	275	38.822437393202	36
4	275	38.822437393202	37
4	275	38.822437393202	38
4	293	40.722774767913	39
4	293	40.722774767913	40
4	293	40.722774767913	41
4	317	43.555901231376	42
4	317	43.555901231376	43
4	317	43.555901231376	44
4	332	45.488501638636	45
4	332	45.488501638636	46
4	332	45.488501638636	47
4	353	46.765562160432	48
4	353	46.765562160432	49
4	353	46.765562160432	50
4	368	48.504563041686	51
4	368	48.504563041686	52
4	368	48.504563041686	53
4	393	53.027038936427	54
4	393	53.027038936427	55
4	393	53.027038936427	56
4	411	54.837295672672	57
4	411	54.837295672672	58
4	411	54.837295672672	59
4	426	56.283443749248	60
4	426	56.283443749248	61
4	426	56.283443749248	62
4	447	58.051072633182	63
4	447	58.051072633182	64
4	447	58.051072633182	65
4	465	59.958818640589	66
4	465	59.958818640589	67
4	465	59.958818640589	68
4	479	61.763565045716	69
4	479	61.763565045716	70
4	479	61.763565045716	71
4	497	62.932925828643	72
4	497	62.932925828643	73
4	497	62.932925828643	74
4	521	66.399334756853	75
4	521	66.399334756853	76
4	521	66.399334756853	77
4	539	70.494750567143	78
4	539	70.494750567143	79
4	539	70.494750567143	80
4	557	71.83306192073	81
4	557	71.83306192073	82
4	557	71.83306192073	83
4	589	74.718348502015	84
4	589	74.718348502015	85
4	589	74.718348502015	86
4	611	76.20074307867	87
4	611	76.20074307867	88
4	611	76.20074307867	89
4	625	77.338789895045	90
4	625	77.338789895045	91
4	625	77.338789895045	92
4	647	78.461004837416	93
4	647	78.461004837416	94
4	647	78.461004837416	95
4	675	82.143328138774	96
4	675	82.143328138774	97
4	675	82.143328138774	98
4	697	83.931099977572	99
4	697	83.931099977572	100
4	697	83.931099977572	101
4	711	85.800258343573	102
4	711	85.800258343573	103
4	711	85.800258343573	104
4	729	87.134878466419	105
4	729	87.134878466419	106
4	729	87.134878466419	107
4	767	92.374916795342	108
4	767	92.374916795342	109
4	767	92.374916795342	110
4	782	93.518913978018	111
4	782	93.518913978018	112
4	782	93.518913978018	113
4	803	95.374217567755	114
4	803	95.374217567755	115
4	803	95.374217567755	116
4	837	100.081684004618	117
4	837	100.081684004618	118
4	837	100.081684004618	119
4	852	101.782203369461	120
4	852	101.782203369461	121
4	852	101.782203369461	122
4	869	103.072325469804	123
4	869	103.072325469804	124
4	869	103.072325469804	125
4	893	106.703495921789	126
4	893	106.703495921789	127
4	893	106.703495921789	128
4	911	108.627338598096	129
4	911	108.627338598096	130
4	911	108.627338598096	131
4	926	109.831390601331	132
4	926	109.831390601331	133
4	926	109.831390601331	134
4	947	114.160191654471	135
4	947	114.160191654471	136
4	947	114.160191654471	137
4	965	115.79301886978	138
4	965	115.79301886978	139
4	965	115.79301886978	140
4	987	117.746333728972	141
4	987	117.746333728972	142
4	987	117.746333728972	143
4	1004	120.715405804615	144
4	1004	120.715405804615	145
4	1004	120.715405804615	146
4	1021	122.207930499111	147
4	1021	122.207930499111	148
4	1021	122.207930499111	149
4	1040	123.99582264044	150
4	1040	123.99582264044	151
4	1040	123.99582264044	152
4	1057	125.544158400167	153
4	1057	125.544158400167	154
4	1057	125.544158400167	155
4	1079	126.699020412701	156
4	1079	126.699020412701	157
4	1079	126.699020412701	158
4	1111	128.897176777904	159
4	1111	128.897176777904	160
4	1111	128.897176777904	161
4	1125	130.170379361125	162
4	1125	130.170379361125	163
4	1125	130.170379361125	164
4	1144	131.456645508555	165
4	1144	131.456645508555	166
4	1144	131.456645508555	167
4	1165	133.267907570461	168
4	1165	133.267907570461	169
4	1165	133.267907570461	170
4	1183	134.813201337599	171
4	1183	134.813201337599	172
4	1183	134.813201337599	173
4	1198	136.044665910559	174
4	1198	136.044665910559	175
4	1198	136.044665910559	176
4	1219	137.7368449334	177
4	1219	137.7368449334	178
4	1219	137.7368449334	179
4	1237	139.692185491571	180
4	1237	139.692185491571	181
4	1237	139.692185491571	182
4	1279	144.583882665503	183
4	1279	144.583882665503	184
4	1279	144.583882665503	185
4	1298	145.760184868566	186
4	1298	145.760184868566	187
4	1298	145.760184868566	188
4	1333	149.245668127273	189
4	1333	149.245668127273	190
4	1333	149.245668127273	191
4	1348	150.341385525104	192
4	1348	150.341385525104	193
4	1348	150.341385525104	194
4	1369	151.725316318806	195
4	1369	151.725316318806	196
4	1369	151.725316318806	197
4	1387	153.214873779663	198
4	1387	153.214873779663	199
4	1387	153.214873779663	200
4	1403	156.165237089467	201
4	1403	156.165237089467	202
4	1403	156.165237089467	203
4	1421	157.529296681695	204
4	1421	157.529296681695	205
4	1421	157.529296681695	206
4	1439	158.949650497183	207
4	1439	158.949650497183	208
4	1439	158.949650497183	209
4	1457	160.168350277587	210
4	1457	160.168350277587	211
4	1457	160.168350277587	212
4	1477	163.462745138399	213
4	1477	163.462745138399	214
4	1477	163.462745138399	215
4	1491	164.910200924873	216
4	1491	164.910200924873	217
4	1491	164.910200924873	218
4	1509	166.867810386463	219
4	1509	166.867810386463	220
4	1509	166.867810386463	221
4	1543	170.919238754567	222
4	1543	170.919238754567	223
4	1543	170.919238754567	224
4	1565	171.965419997093	225
4	1565	171.965419997093	226
4	1565	171.965419997093	227
4	1580	173.161440094871	228
4	1580	173.161440094871	229
4	1580	173.161440094871	230
4	1601	174.978251451634	231
4	1601	174.978251451634	232
4	1601	174.978251451634	233
4	1619	176.541431303337	234
4	1619	176.541431303337	235
4	1619	176.541431303337	236
4	1633	177.969812016175	237
4	1633	177.969812016175	238
4	1633	177.969812016175	239
4	1651	179.230363119899	240
4	1651	179.230363119899	241
4	1651	179.230363119899	242
4	1672	182.7920802247	243
4	1672	182.7920802247	244
4	1672	182.7920802247	245
4	1689	184.118648089907	246
4	1689	184.118648089907	247
4	1689	184.118648089907	248
4	1709	187.42749695055	249
4	1709	187.42749695055	250
4	1709	187.42749695055	251
4	1723	188.803365510492	252
4	1723	188.803365510492	253
4	1723	188.803365510492	254
4	1755	194.597448240614	255
4	1755	194.597448240614	256
4	1755	194.597448240614	257
4	1773	195.667818195218	258
4	1773	195.667818195218	259
4	1773	195.667818195218	260
4	1798	201.580094799894	261
4	1798	201.580094799894	262
4	1798	201.580094799894	263
4	1821	203.825716678474	264
4	1821	203.825716678474	265
4	1821	203.825716678474	266
4	1836	205.281061728725	267
4	1836	205.281061728725	268
4	1836	205.281061728725	269
4	1854	207.060602143258	270
4	1854	207.060602143258	271
4	1854	207.060602143258	272
4	1872	208.31886365619	273
4	1872	208.31886365619	274
4	1872	208.31886365619	275
4	1904	211.422541472266	276
4	1904	211.422541472266	277
4	1904	211.422541472266	278
4	1922	213.027829570326	279
4	1922	213.027829570326	280
4	1922	213.027829570326	281
4	1939	214.612707298424	282
4	1939	214.612707298424	283
4	1939	214.612707298424	284
4	1979	220.110316802602	285
4	1979	220.110316802602	286
4	1979	220.110316802602	287
4	1995	223.465738304328	288
4	1995	223.465738304328	289
4	1995	223.465738304328	290
4	2025	227.886946420912	291
4	2025	227.886946420912	292
4	2025	227.886946420912	293
4	2044	229.305443856087	294
4	2044	229.305443856087	295
4	2044	229.305443856087	296
4	2062	231.296122475611	297
4	2062	231.296122475611	298
4	2062	231.296122475611	299
4	2079	232.606627548295	300
4	2079	232.606627548295	301
4	2079	232.606627548295	302
4	2103	236.065408776591	303
4	2103	236.065408776591	304
4	2103	236.065408776591	305
4	2121	237.939970580475	306
4	2121	237.939970580475	307
4	2121	237.939970580475	308
5	20	1.361101004583	0
5	74	10.318947106515	1
5	91	13.026130629689	2
5	132	17.083237364239	3
5	152	20.715295459356	4
5	172	24.362756468867	5
5	190	25.740946183851	6
5	205	27.142102503253	7
5	223	29.026024981663	8
5	320	43.565901231376	9
5	338	45.498501638636	10
5	356	46.775562160432	11
5	374	48.514563041686	12
5	396	53.037038936427	13
5	414	54.847295672672	14
5	432	56.293443749248	15
5	468	59.968818640589	16
5	482	61.773565045716	17
5	524	66.409334756853	18
5	543	70.504750567143	19
5	560	71.84306192073	20
5	628	77.348789895045	21
5	679	82.153328138774	22
5	700	83.941099977572	23
5	714	85.810258343573	24
5	806	95.384217567755	25
5	840	100.091684004618	26
5	858	101.792203369461	27
5	872	103.082325469804	28
5	896	106.713495921789	29
5	914	108.637338598096	30
5	932	109.841390601331	31
5	990	117.756333728972	32
5	1010	120.725405804615	33
5	1024	122.217930499111	34
5	1046	124.00582264044	35
5	1061	125.554158400167	36
5	1114	128.907176777904	37
5	1168	133.277907570461	38
5	1186	134.823201337599	39
5	1204	136.054665910559	40
5	1222	137.7468449334	41
5	1240	139.702185491571	42
5	1283	144.593882665503	43
5	1304	145.770184868566	44
5	1336	149.255668127273	45
5	1354	150.351385525104	46
5	1390	153.224873779663	47
5	1407	156.175237089467	48
5	1425	157.539296681695	49
5	1442	158.959650497183	50
5	1460	160.178350277587	51
5	1495	164.920200924873	52
5	1512	166.877810386463	53
5	1547	170.929238754567	54
5	1568	171.975419997093	55
5	1586	173.171440094871	56
5	1604	174.988251451634	57
5	1636	177.979812016175	58
5	1655	179.240363119899	59
5	1678	182.8020802247	60
5	1692	184.128648089907	61
5	1712	187.43749695055	62
5	1726	188.813365510492	63
5	1758	194.607448240614	64
5	1776	195.677818195218	65
5	1804	201.590094799894	66
5	1824	203.835716678474	67
5	1860	207.070602143258	68
5	1878	208.32886365619	69
5	1928	213.037829570326	70
5	1982	220.120316802602	71
5	1998	223.475738304328	72
5	2028	227.896946420912	73
5	2050	229.315443856087	74
5	2068	231.306122475611	75
5	2106	236.075408776591	76
5	2124	237.949970580475	77

