version 2
run General-2-20230921-23:28:16-9400
attr configname General
attr datetime 20230921-23:28:16
attr experiment General
attr inifile omnetpp.ini
attr iterationvars ""
attr iterationvarsf ""
attr measurement ""
attr network Network3
attr processid 9400
attr repetition 2
attr replication #2
attr resultdir results
attr runnumber 2
attr seedset 2
param Network3.node[*].transmissionTime "uniform(1s, 2s)"
param Network3.node[*].delayTime "uniform(0.01s, 0.2s)"
param Network3.node[*].processingTime exponential(0.01s)
param Network3.node[0].lossProbability 0
param Network3.node[1].lossProbability 0.1
param Network3.node[2].lossProbability 0.1
param Network3.node[3].lossProbability "0.1 / 2"
param Network3.node[4].lossProbability "0.1 / 2"
param Network3.node[6].lossProbability "0.1 * 2"
param Network3.node[7].lossProbability "0.1 * 2"
param Network3.node[5].lossProbability "0.1 * 3"

vector 0 Network3.node[0] txVector ETV
vector 1 Network3.node[2] txVector ETV
vector 2 Network3.node[4] txVector ETV
vector 3 Network3.node[7] txVector ETV
vector 4 Network3.node[1] txVector ETV
vector 5 Network3.node[3] txVector ETV
vector 6 Network3.node[6] txVector ETV
vector 7 Network3.node[5] rxVector ETV
0	1	0.092839031499	0
0	9	1.118765259413	1
0	17	2.738036229759	2
0	25	4.251614347584	3
0	31	5.331259818533	4
0	37	6.512986855832	5
0	45	7.733293062094	6
0	51	9.238529779035	7
0	69	10.387094559399	8
0	77	11.753436955176	9
0	85	13.747288965638	10
0	101	15.040312198009	11
0	109	16.419522764645	12
0	117	18.081724786683	13
0	125	20.054635477503	14
0	137	21.269271225454	15
0	145	23.018049103692	16
0	153	24.364287016233	17
0	165	26.190536842932	18
0	169	27.301119988802	19
0	171	28.930479715363	20
0	183	30.105596104422	21
0	185	31.250806461339	22
0	193	32.482924711443	23
0	197	34.135945220962	24
0	209	35.365519248899	25
0	211	36.760670008622	26
0	219	38.210696730781	27
0	227	40.202680979874	28
0	235	41.956861932315	29
0	247	43.329902987247	30
0	253	44.623646721262	31
0	259	46.564097217069	32
0	267	47.631832456234	33
0	283	49.013495033625	34
0	291	50.432402345836	35
0	299	51.557620915137	36
0	315	52.827798675066	37
0	319	53.976475001099	38
0	327	55.017744118134	39
0	339	56.668836308197	40
0	345	58.055419768925	41
0	353	59.485008384819	42
0	365	61.198329947443	43
0	381	62.807260102845	44
0	393	63.880758487639	45
0	399	65.141478505471	46
0	401	67.086137382799	47
0	411	68.459030266871	48
0	415	70.295773796291	49
0	423	72.146203627131	50
0	435	74.014122096143	51
0	443	75.379388130057	52
0	451	77.149222319966	53
0	459	78.491794985507	54
0	471	80.144177449888	55
0	483	81.14606010753	56
0	489	82.820682882818	57
0	495	84.606480743291	58
0	501	86.32669738915	59
0	513	87.389502829893	60
0	525	88.551686274142	61
0	549	89.800420562292	62
0	557	91.548605590381	63
0	573	92.935576811221	64
0	581	94.499002847143	65
0	595	96.460393037901	66
0	601	97.860537577907	67
0	607	99.233308999354	68
0	615	101.035338000648	69
0	623	102.492898575517	70
0	625	103.529986372937	71
0	635	104.847269727869	72
0	639	106.225982875584	73
0	645	107.238953570623	74
0	653	108.818155533189	75
0	661	110.589133502936	76
0	669	111.640190652126	77
0	679	112.936395606279	78
0	695	114.698020057773	79
0	701	115.9625596686	80
0	711	117.775077364427	81
0	715	119.06103116043	82
0	731	120.281924128086	83
0	737	121.600637173299	84
0	749	122.687892792067	85
0	751	123.991478591245	86
0	763	125.566390583311	87
0	771	126.978208671576	88
0	777	128.282019969095	89
0	789	129.524739085483	90
0	809	131.340718633747	91
0	821	133.23657248497	92
0	829	134.983044092562	93
0	839	136.036120330235	94
0	847	137.440718825459	95
0	863	139.157612334722	96
0	873	140.96695567646	97
0	879	142.761953858444	98
0	887	143.881569199981	99
0	903	145.559728220822	100
0	909	147.043918319298	101
0	921	149.032173563512	102
0	927	150.863957142709	103
0	933	152.07719894873	104
0	949	153.089250145965	105
0	955	154.9985596128	106
0	961	156.241327487417	107
0	967	157.840727561871	108
0	973	158.913760916116	109
0	981	160.708232192342	110
0	989	161.888622773598	111
0	997	163.329035023945	112
0	1007	164.778777162564	113
0	1017	166.023277796126	114
0	1023	167.098777506287	115
0	1031	168.649514591341	116
0	1039	170.181213347494	117
0	1047	171.418275939786	118
0	1055	173.021021215032	119
0	1061	174.788624177939	120
0	1069	176.50541958401	121
0	1077	177.784519663798	122
0	1097	179.204288624712	123
0	1105	180.223827366271	124
0	1117	181.43797426533	125
0	1125	183.158621585714	126
0	1127	184.790932511464	127
0	1133	186.685909323646	128
0	1139	188.231448801486	129
0	1141	189.881993114269	130
0	1147	191.526603464522	131
0	1155	192.723391100085	132
0	1161	194.55908090693	133
0	1169	195.900453994535	134
0	1177	196.968432154991	135
0	1183	198.636695658574	136
0	1191	200.620641746577	137
0	1203	201.663981591836	138
0	1209	202.87991582674	139
0	1219	204.408122354672	140
0	1225	205.727856761795	141
0	1233	207.621450258438	142
0	1241	209.101054492658	143
0	1249	210.903826751765	144
0	1261	212.81940187865	145
0	1277	213.903771999777	146
0	1289	215.300292464225	147
0	1299	217.288864825173	148
0	1309	218.486343154237	149
0	1317	219.666423081672	150
0	1325	221.202638620297	151
0	1331	222.536310390123	152
0	1337	223.841264099601	153
0	1343	225.654700949575	154
0	1351	227.064900152871	155
0	1359	228.722374028314	156
0	1367	230.529758960495	157
0	1373	231.863001826007	158
0	1381	233.827899739632	159
0	1391	235.672050682615	160
0	1397	237.139846848577	161
0	1405	238.810544018654	162
1	3	0.110816610738	0
1	11	1.132327076887	1
1	27	4.268651295476	2
1	33	5.348077732909	3
1	39	6.527292012817	4
1	47	7.748185214463	5
1	53	9.267654215859	6
1	103	15.05044322607	7
1	111	16.434425210506	8
1	119	18.092921367033	9
1	127	20.070026930111	10
1	147	23.031111346594	11
1	167	26.203739711819	12
1	195	32.508963520966	13
1	199	34.15814040104	14
1	213	36.77097839783	15
1	221	38.226415248685	16
1	229	40.216591916648	17
1	255	44.634724109679	18
1	269	47.6752940539	19
1	301	51.587733529863	20
1	317	52.837931929308	21
1	347	58.075686735253	22
1	437	74.037943726674	23
1	445	75.405270535485	24
1	491	82.836278495606	25
1	515	87.411352349234	26
1	583	94.517143996397	27
1	609	99.245011961447	28
1	641	106.237318042719	29
1	655	108.829088208039	30
1	681	112.949512210197	31
1	703	115.974070039399	32
1	713	117.788781104494	33
1	717	119.071472987744	34
1	739	121.628727393133	35
1	765	125.578831971798	36
1	823	133.255217718404	37
1	831	134.994243774458	38
1	849	137.457327920626	39
1	881	142.806419733602	40
1	905	145.580305203311	41
1	923	149.045545371392	42
1	929	150.878561510757	43
1	935	152.089519362049	44
1	963	156.257903915285	45
1	975	158.92505333699	46
1	991	161.928952121119	47
1	999	163.345383987606	48
1	1033	168.673367275356	49
1	1099	179.226982332882	50
1	1119	181.451308686868	51
1	1129	184.806447548257	52
1	1143	189.89587960232	53
1	1149	191.543578162786	54
1	1157	192.736260711421	55
1	1163	194.570682467093	56
1	1179	196.979514357017	57
1	1193	200.633174232801	58
1	1205	201.68027440948	59
1	1227	205.750163673718	60
1	1251	210.920657160222	61
1	1263	212.853975240297	62
1	1279	213.916710698285	63
1	1319	219.681004088534	64
1	1327	221.221764214188	65
1	1333	222.561626657104	66
1	1353	227.101751593589	67
1	1369	230.570215394099	68
1	1375	231.875682026418	69
1	1383	233.841855287835	70
2	5	0.127447623789	0
2	13	1.152343867444	1
2	29	4.282046226904	2
2	35	5.360639722043	3
2	41	6.541872310747	4
2	49	7.805127411138	5
2	55	9.284585854946	6
2	59	9.362965652679	7
2	63	9.414515739863	8
2	67	9.445577369751	9
2	93	13.857188048048	10
2	97	13.889621657914	11
2	105	15.062837648154	12
2	113	16.469014742849	13
2	121	18.135744736464	14
2	129	20.089003984328	15
2	133	20.145384442723	16
2	149	23.067581824379	17
2	157	24.412248201723	18
2	161	24.444029862582	19
2	179	28.994972058135	20
2	189	31.283590898391	21
2	201	34.168302815503	22
2	205	34.21687357763	23
2	215	36.786641589138	24
2	223	38.238735197709	25
2	231	40.228388197618	26
2	239	42.008377554068	27
2	243	42.05357086278	28
2	251	43.363328665089	29
2	257	44.663175565556	30
2	271	47.685340798189	31
2	275	47.730508930406	32
2	279	47.791829332839	33
2	303	51.600229447522	34
2	307	51.662167262286	35
2	311	51.685175471184	36
2	335	55.107920046528	37
2	349	58.104770046126	38
2	357	59.528038923468	39
2	361	59.556318117222	40
2	369	61.245134277966	41
2	373	61.353268319112	42
2	377	61.386919709879	43
2	385	62.83757515292	44
2	389	62.882636905249	45
2	397	63.90745392417	46
2	409	67.144344020395	47
2	419	70.325386321184	48
2	427	72.169117338051	49
2	431	72.198204287961	50
2	439	74.052174621208	51
2	447	75.442627868287	52
2	455	77.182063171509	53
2	463	78.547909708466	54
2	467	78.612842172997	55
2	479	80.193908507253	56
2	493	82.848913952692	57
2	505	86.359059879412	58
2	509	86.383868128337	59
2	517	87.424912261991	60
2	521	87.471369258783	61
2	533	88.607634700586	62
2	537	88.642037490418	63
2	541	88.688985699184	64
2	545	88.729367018154	65
2	553	89.826208052286	66
2	561	91.590321935874	67
2	565	91.620148585647	68
2	569	91.651438892019	69
2	585	94.536724067014	70
2	589	94.569372918507	71
2	593	94.620273770317	72
2	599	96.495634605531	73
2	605	97.893670179872	74
2	611	99.259651940019	75
2	633	103.609612069389	76
2	643	106.257439547212	77
2	649	107.276697733803	78
2	657	108.84211976924	79
2	677	111.725946699193	80
2	683	112.961706468098	81
2	687	113.005357292461	82
2	691	113.041680335088	83
2	699	114.731730453307	84
2	705	115.987970239018	85
2	709	116.0182598229	86
2	719	119.112197294742	87
2	723	119.145553468328	88
2	727	119.194376005992	89
2	741	121.644561411257	90
2	745	121.677503689367	91
2	755	124.015841200188	92
2	759	124.047650009397	93
2	767	125.591553654266	94
2	775	127.022790091195	95
2	781	128.356715877503	96
2	785	128.39070035151	97
2	793	129.627045316493	98
2	797	129.665789084349	99
2	801	129.690801873896	100
2	805	129.729709243519	101
2	813	131.377309292257	102
2	817	131.418312120993	103
2	825	133.266068997845	104
2	833	135.011250655535	105
2	837	135.077783331409	106
2	851	137.473166993632	107
2	855	137.519262703427	108
2	859	137.547059229819	109
2	871	139.225822395077	110
2	877	140.988214332907	111
2	883	142.822754710437	112
2	891	143.91146400759	113
2	895	143.956598365491	114
2	899	143.980287479797	115
2	907	145.594539694901	116
2	917	147.123186523191	117
2	925	149.062480803747	118
2	931	150.889755377945	119
2	937	152.108318173538	120
2	941	152.134607806785	121
2	945	152.175775602059	122
2	953	153.113666930255	123
2	959	155.035494060263	124
2	965	156.275935743362	125
2	971	157.909575325495	126
2	977	158.943575806324	127
2	993	161.952671262334	128
2	1001	163.359310412677	129
2	1005	163.392554687434	130
2	1011	164.814571748284	131
2	1015	164.868941930218	132
2	1035	168.687960773316	133
2	1081	177.818328368197	134
2	1085	177.855394994183	135
2	1089	177.884646542082	136
2	1093	177.928176890974	137
2	1101	179.238481131447	138
2	1109	180.25429558184	139
2	1113	180.297672410431	140
2	1121	181.478582836221	141
2	1131	184.820086745681	142
2	1145	189.906038072561	143
2	1151	191.558302977541	144
2	1159	192.749047042444	145
2	1165	194.584399888197	146
2	1181	196.992571506277	147
2	1187	198.663906241682	148
2	1195	200.646749034534	149
2	1199	200.683585331783	150
2	1207	201.70314590491	151
2	1213	202.913950805966	152
2	1217	202.958260764595	153
2	1229	205.7634116329	154
2	1237	207.649064272687	155
2	1253	210.940615950153	156
2	1257	210.970338668934	157
2	1265	212.883151794265	158
2	1269	212.914346758656	159
2	1273	212.955734671221	160
2	1281	213.929948763781	161
2	1285	213.954294664558	162
2	1293	215.327908961986	163
2	1297	215.369114461345	164
2	1307	217.332937719445	165
2	1313	218.517093854313	166
2	1321	219.695910660421	167
2	1329	221.252340249502	168
2	1335	222.57996406913	169
2	1341	223.904527458352	170
2	1347	225.68099288762	171
2	1355	227.113546502855	172
2	1363	228.759542728724	173
2	1371	230.589237226348	174
2	1377	231.924593918591	175
2	1385	233.857005710115	176
2	1389	233.879182627883	177
2	1395	235.725866526401	178
2	1401	237.172441102207	179
2	1409	238.85012808817	180
3	7	0.141457398022	0
3	15	1.169875856529	1
3	43	6.562100127565	2
3	57	9.344592148034	3
3	61	9.389529652629	4
3	65	9.427720179201	5
3	75	10.441459293912	6
3	91	13.839901739365	7
3	95	13.871096887125	8
3	99	13.91746057691	9
3	107	15.08157678496	10
3	115	16.483335994894	11
3	123	18.159154113683	12
3	131	20.100873030342	13
3	135	20.156822617709	14
3	143	21.344959861809	15
3	151	23.085351276402	16
3	159	24.428967268728	17
3	163	24.456850987511	18
3	177	28.978596638864	19
3	181	29.025351877746	20
3	191	31.296042265038	21
3	203	34.182721019789	22
3	207	34.227552765724	23
3	217	36.802328713024	24
3	225	38.255372125552	25
3	233	40.239804890438	26
3	241	42.029772748629	27
3	245	42.065238089423	28
3	265	46.618259796289	29
3	273	47.699588778329	30
3	277	47.755770612331	31
3	281	47.806042837415	32
3	305	51.639684277638	33
3	309	51.672579855968	34
3	313	51.69680638523	35
3	325	54.040903386661	36
3	333	55.0796625854	37
3	337	55.130852826582	38
3	351	58.115843056897	39
3	359	59.544534750913	40
3	363	59.568316663645	41
3	371	61.30801846833	42
3	375	61.376498502847	43
3	379	61.41604292102	44
3	387	62.869939960781	45
3	391	62.898862846664	46
3	407	67.130329435385	47
3	421	70.341684978387	48
3	429	72.18006558881	49
3	433	72.228250994199	50
3	441	74.065094827062	51
3	449	75.456764383077	52
3	457	77.208935342757	53
3	465	78.595436234633	54
3	469	78.633383166727	55
3	477	80.182464874411	56
3	481	80.213885342766	57
3	507	86.373013863395	58
3	511	86.427212913226	59
3	519	87.451166708861	60
3	523	87.489874576326	61
3	531	88.590927562927	62
3	535	88.625909658835	63
3	539	88.655615003739	64
3	543	88.715725761311	65
3	547	88.739715784711	66
3	555	89.840866901815	67
3	563	91.60693945922	68
3	567	91.630429950079	69
3	571	91.662476399161	70
3	587	94.554629219224	71
3	591	94.59074622156	72
3	613	99.278878670433	73
3	631	103.59682171679	74
3	651	107.295659651301	75
3	659	108.864047497433	76
3	675	111.704889206936	77
3	685	112.976642269158	78
3	689	113.028028695685	79
3	693	113.052108220092	80
3	707	116.00502759659	81
3	721	119.128716307114	82
3	725	119.170376663329	83
3	729	119.204609801419	84
3	743	121.664367368036	85
3	747	121.689501884313	86
3	757	124.027844714581	87
3	761	124.060628651214	88
3	769	125.607759764459	89
3	783	128.375468912614	90
3	787	128.404851554382	91
3	795	129.64850448965	92
3	799	129.677977079552	93
3	803	129.711095872013	94
3	807	129.744498739203	95
3	815	131.398567787645	96
3	819	131.429473054228	97
3	827	133.283615051669	98
3	835	135.066117816334	99
3	845	136.075177224927	100
3	853	137.506575408282	101
3	857	137.532851539477	102
3	861	137.569270519544	103
3	869	139.207825189759	104
3	885	142.868251104814	105
3	893	143.939475471165	106
3	897	143.966917884259	107
3	901	144.013197020203	108
3	915	147.106230674341	109
3	919	147.140788029541	110
3	939	152.119029778082	111
3	943	152.144723482128	112
3	947	152.19583334765	113
3	979	158.957288978851	114
3	987	160.748743806271	115
3	995	161.978846052711	116
3	1003	163.375116543424	117
3	1013	164.829448676317	118
3	1037	168.716451213801	119
3	1045	170.235594946165	120
3	1075	176.58402720483	121
3	1083	177.840276166681	122
3	1087	177.865953234727	123
3	1091	177.916894968559	124
3	1095	177.944037278594	125
3	1103	179.264928813524	126
3	1111	180.279235323185	127
3	1115	180.316034816853	128
3	1123	181.496744146206	129
3	1153	191.586178896973	130
3	1167	194.600812761848	131
3	1189	198.688830582027	132
3	1197	200.663414217885	133
3	1201	200.719691350043	134
3	1215	202.934276063253	135
3	1231	205.780542937548	136
3	1239	207.666531732766	137
3	1255	210.956782534674	138
3	1259	210.981696275738	139
3	1267	212.904203322538	140
3	1271	212.943464586627	141
3	1275	212.974125421193	142
3	1283	213.942318915879	143
3	1287	213.974088229988	144
3	1295	215.349607880538	145
3	1305	217.320936909937	146
3	1315	218.52925193405	147
3	1323	219.708562337556	148
3	1349	225.69166286009	149
3	1357	227.135333725311	150
3	1365	228.780982443548	151
3	1379	231.946400865141	152
3	1387	233.867979969381	153
3	1403	237.189225012104	154
4	19	2.750075030929	0
4	71	10.416122620739	1
4	79	11.7986978678	2
4	87	13.764713744989	3
4	139	21.295295136211	4
4	155	24.384057066822	5
4	173	28.947712875895	6
4	187	31.271115383569	7
4	237	41.966970529077	8
4	249	43.353243822543	9
4	261	46.583990703972	10
4	285	49.024205689381	11
4	293	50.44317397318	12
4	321	53.992019976961	13
4	329	55.037991694414	14
4	341	56.692104694623	15
4	355	59.516659571186	16
4	367	61.226240294272	17
4	383	62.827025413645	18
4	395	63.895910806229	19
4	403	67.097145240727	20
4	413	68.474357854944	21
4	417	70.308394532324	22
4	425	72.158672700834	23
4	453	77.169685705173	24
4	461	78.516682129364	25
4	473	80.154710341178	26
4	485	81.162613290001	27
4	497	84.628894744874	28
4	503	86.340387885775	29
4	527	88.565106607699	30
4	551	89.815279777227	31
4	559	91.576699685538	32
4	575	92.959074580687	33
4	597	96.474768700917	34
4	603	97.87623112203	35
4	617	101.057066854018	36
4	627	103.548794533806	37
4	637	104.88376978302	38
4	647	107.259573730432	39
4	663	110.610029272905	40
4	671	111.668633880312	41
4	697	114.711295759105	42
4	733	120.295987237466	43
4	753	124.003208381903	44
4	773	126.999103453908	45
4	779	128.3373276803	46
4	791	129.582929205105	47
4	811	131.363718870869	48
4	841	136.04894631274	49
4	865	139.167779410399	50
4	875	140.978116663526	51
4	889	143.896951660399	52
4	911	147.063888214959	53
4	951	153.101718705915	54
4	957	155.00876740279	55
4	969	157.875068651436	56
4	983	160.72066014932	57
4	1009	164.800097835259	58
4	1019	166.061795724737	59
4	1025	167.112709204728	60
4	1041	170.195976170861	61
4	1049	171.44009346893	62
4	1057	173.033138806527	63
4	1063	174.801161628637	64
4	1071	176.537748140904	65
4	1079	177.795544320937	66
4	1107	180.234555844304	67
4	1135	186.721222586497	68
4	1171	195.91823144115	69
4	1185	198.651353295425	70
4	1211	202.893572323537	71
4	1221	204.422164798091	72
4	1235	207.636544894211	73
4	1243	209.118793923811	74
4	1291	215.313843998448	75
4	1301	217.299610512654	76
4	1311	218.503033651304	77
4	1339	223.892285030558	78
4	1345	225.668864543397	79
4	1361	228.738039201449	80
4	1393	235.701520996057	81
4	1399	237.155048885997	82
4	1407	238.838885391146	83
5	21	2.763065806229	0
5	73	10.428620039379	1
5	81	11.820805896459	2
5	89	13.789065650251	3
5	141	21.309893412682	4
5	175	28.961050217067	5
5	263	46.60243678365	6
5	287	49.054408479448	7
5	295	50.455478093179	8
5	323	54.017236968799	9
5	331	55.063609788089	10
5	343	56.702930233427	11
5	405	67.115688883063	12
5	475	80.164735196265	13
5	487	81.187565364779	14
5	499	84.643600885953	15
5	529	88.579966457322	16
5	577	93.005072416651	17
5	619	101.067100264196	18
5	629	103.562440285272	19
5	665	110.621528889353	20
5	673	111.689539202824	21
5	735	120.311562522776	22
5	843	136.062867780644	23
5	867	139.183613648456	24
5	913	147.093439476203	25
5	985	160.736276206943	26
5	1021	166.072492993943	27
5	1027	167.128861648303	28
5	1043	170.217511545067	29
5	1051	171.453084707672	30
5	1059	173.04657577006	31
5	1065	174.813084971695	32
5	1073	176.55941298466	33
5	1137	186.746039606332	34
5	1173	195.94216069165	35
5	1223	204.432943366889	36
5	1245	209.133480512417	37
5	1303	217.310578877385	38
6	23	2.779882674062	0
6	83	11.845285886292	1
6	289	49.084143284278	2
6	297	50.470740864478	3
6	579	93.025381816443	4
6	621	101.107932412732	5
6	667	110.634629391012	6
6	1029	167.145000484344	7
6	1053	171.470328002226	8
6	1067	174.834251381905	9
6	1175	195.952451671851	10
6	1247	209.150401138708	11
7	24	2.789882674062	0
7	44	6.572100127565	1
7	100	13.92746057691	2
7	116	16.493335994894	3
7	124	18.169154113683	4
7	136	20.166822617709	5
7	144	21.354959861809	6
7	152	23.095351276402	7
7	192	31.306042265038	8
7	218	36.812328713024	9
7	226	38.265372125552	10
7	246	42.075238089423	11
7	266	46.628259796289	12
7	282	47.816042837415	13
7	298	50.480740864478	14
7	326	54.050903386661	15
7	338	55.140852826582	16
7	364	59.578316663645	17
7	380	61.42604292102	18
7	392	62.908862846664	19
7	422	70.351684978387	20
7	434	72.238250994199	21
7	442	74.075094827062	22
7	450	75.466764383077	23
7	458	77.218935342757	24
7	482	80.223885342766	25
7	556	89.850866901815	26
7	572	91.672476399161	27
7	580	93.035381816443	28
7	614	99.288878670433	29
7	622	101.117932412732	30
7	652	107.305659651301	31
7	660	108.874047497433	32
7	694	113.062108220092	33
7	748	121.699501884313	34
7	762	124.070628651214	35
7	788	128.414851554382	36
7	828	133.293615051669	37
7	886	142.878251104814	38
7	920	147.150788029541	39
7	948	152.20583334765	40
7	980	158.967288978851	41
7	988	160.758743806271	42
7	996	161.988846052711	43
7	1030	167.155000484344	44
7	1038	168.726451213801	45
7	1046	170.245594946165	46
7	1054	171.480328002226	47
7	1068	174.844251381905	48
7	1076	176.59402720483	49
7	1096	177.954037278594	50
7	1104	179.274928813524	51
7	1124	181.506744146206	52
7	1202	200.729691350043	53
7	1260	210.991696275738	54
7	1276	212.984125421193	55
7	1288	213.984088229988	56
7	1316	218.53925193405	57
7	1324	219.718562337556	58
7	1350	225.70166286009	59
7	1358	227.145333725311	60
7	1366	228.790982443548	61
7	1380	231.956400865141	62
7	1404	237.199225012104	63

