version 2
run General-0-20230921-23:28:16-9400
attr configname General
attr datetime 20230921-23:28:16
attr experiment General
attr inifile omnetpp.ini
attr iterationvars ""
attr iterationvarsf ""
attr measurement ""
attr network Network3
attr processid 9400
attr repetition 0
attr replication #0
attr resultdir results
attr runnumber 0
attr seedset 0
param Network3.node[*].transmissionTime "uniform(1s, 2s)"
param Network3.node[*].delayTime "uniform(0.01s, 0.2s)"
param Network3.node[*].processingTime exponential(0.01s)
param Network3.node[0].lossProbability 0
param Network3.node[1].lossProbability 0.1
param Network3.node[2].lossProbability 0.1
param Network3.node[3].lossProbability "0.1 / 2"
param Network3.node[4].lossProbability "0.1 / 2"
param Network3.node[6].lossProbability "0.1 * 2"
param Network3.node[7].lossProbability "0.1 * 2"
param Network3.node[5].lossProbability "0.1 * 3"

vector 0 Network3.node[0] txVector ETV
vector 1 Network3.node[2] txVector ETV
vector 2 Network3.node[4] txVector ETV
vector 3 Network3.node[7] txVector ETV
vector 4 Network3.node[1] txVector ETV
vector 5 Network3.node[5] rxVector ETV
vector 6 Network3.node[3] txVector ETV
vector 7 Network3.node[6] txVector ETV
0	1	0.114274565438	0
0	11	1.82946393041	1
0	19	3.102120224927	2
0	21	4.439516386558	3
0	29	5.459734785678	4
0	37	6.921214148477	5
0	49	8.443062476656	6
0	57	10.059996475308	7
0	73	11.120221941807	8
0	89	12.281531452975	9
0	101	13.378632724127	10
0	109	14.661439683596	11
0	119	15.725587184616	12
0	127	17.003305748646	13
0	133	18.401126500294	14
0	151	20.078943039598	15
0	159	21.845966742216	16
0	169	23.434431825606	17
0	179	24.736006641835	18
0	183	26.090053306269	19
0	195	28.059015072259	20
0	201	29.15858415708	21
0	203	31.026710217661	22
0	211	32.53502566794	23
0	213	33.568248054321	24
0	221	35.26567682678	25
0	231	36.277390908293	26
0	239	37.448377501063	27
0	247	39.232021749096	28
0	255	40.911112367252	29
0	263	42.133555590717	30
0	265	43.218851157773	31
0	273	44.653267786681	32
0	281	45.720517417492	33
0	289	46.937414398493	34
0	295	48.320878289716	35
0	319	49.632738510223	36
0	325	51.440318775207	37
0	339	53.157178455109	38
0	341	54.374628949521	39
0	349	55.926821420977	40
0	361	56.943251052249	41
0	369	58.819756294677	42
0	377	60.618958879339	43
0	385	61.632195736126	44
0	401	63.271668252612	45
0	409	65.04571558892	46
0	413	66.099142766401	47
0	425	67.869723515196	48
0	427	69.596767779051	49
0	435	70.852907362005	50
0	441	72.294922681369	51
0	443	74.083468195826	52
0	451	75.743508057513	53
0	461	76.753196231167	54
0	467	78.272031378777	55
0	469	79.747320823216	56
0	479	81.177723262769	57
0	487	82.337593329449	58
0	501	84.137971788256	59
0	509	85.934363263038	60
0	521	87.8862377378	61
0	533	89.310269989616	62
0	539	90.711529486657	63
0	551	91.803557070049	64
0	557	92.836022366148	65
0	563	93.951506659	66
0	579	95.261574302877	67
0	591	97.115514417954	68
0	603	98.854197076133	69
0	611	100.082460689901	70
0	621	101.196277329077	71
0	635	102.645568977187	72
0	641	103.794398273651	73
0	649	105.087192304742	74
0	651	106.982578189422	75
0	659	108.001878793894	76
0	667	109.977630482831	77
0	671	111.255404156011	78
0	677	112.881040773664	79
0	685	114.134683296161	80
0	693	115.75706771862	81
0	697	117.30074577274	82
0	707	119.011082600879	83
0	711	120.436590236921	84
0	719	122.405454338605	85
0	721	123.794321771788	86
0	729	125.44151842369	87
0	737	127.255197072246	88
0	745	128.775149450016	89
0	757	130.66211023073	90
0	763	132.492007600919	91
0	769	133.808495520458	92
0	775	135.694800185349	93
0	783	137.030431164272	94
0	785	138.548043266481	95
0	793	140.455776224222	96
0	795	142.453738476459	97
0	799	144.051041413641	98
0	805	146.021263217397	99
0	821	147.628512594692	100
0	833	149.219539491769	101
0	839	151.10933314644	102
0	841	152.874603735127	103
0	847	154.116505440401	104
0	861	155.549784175895	105
0	867	157.234718615498	106
0	875	158.853901411948	107
0	883	160.327091462753	108
0	891	161.810797923553	109
0	895	163.210465295782	110
0	903	164.585217998672	111
0	911	165.901437985554	112
0	923	167.301098005224	113
0	929	169.238316833118	114
0	937	170.257439730765	115
0	943	171.342750657659	116
0	945	172.856510392467	117
0	953	174.712786575623	118
0	959	175.912382714294	119
0	967	177.334227227217	120
0	975	179.00182053338	121
0	985	180.255845761934	122
0	1011	181.415691048216	123
0	1019	183.394238595694	124
0	1031	185.16892207049	125
0	1041	186.915506357869	126
0	1049	188.342410717236	127
0	1051	189.417769787677	128
0	1059	190.824691722013	129
0	1067	192.435678229976	130
0	1079	193.443146546913	131
0	1089	194.816186321975	132
0	1095	196.2192123249	133
0	1103	197.387254843564	134
0	1109	199.101630579523	135
0	1115	200.829518736183	136
0	1117	201.909579830087	137
0	1125	203.202468395309	138
0	1137	204.675611372647	139
0	1145	206.36976921985	140
0	1153	207.728764497517	141
0	1165	209.691961793304	142
0	1173	211.008504357962	143
0	1185	212.736051353933	144
0	1193	214.601996823288	145
0	1201	216.100176388006	146
0	1207	217.448368330327	147
0	1213	219.189599997671	148
0	1221	221.08946673626	149
0	1229	222.457384227383	150
0	1231	223.942349879145	151
0	1237	225.04642864231	152
0	1245	226.819538696278	153
0	1253	228.295127811683	154
0	1261	229.435511763515	155
0	1269	231.154138154658	156
0	1281	232.316496098955	157
0	1287	233.939390128554	158
0	1301	235.904479514883	159
0	1303	237.439387715031	160
0	1319	239.268228620831	161
1	3	0.133506796753	0
1	31	5.484900145418	1
1	59	10.080985599984	2
1	129	17.021353722644	3
1	161	21.866745091057	4
1	181	24.754032161693	5
1	215	33.584291045039	6
1	223	35.280139354985	7
1	241	37.465309498758	8
1	249	39.261993468771	9
1	257	40.92358095994	10
1	291	46.956289417778	11
1	297	48.336419998006	12
1	321	49.656485309761	13
1	351	55.963347006132	14
1	363	56.957378350916	15
1	379	60.633224237459	16
1	387	61.646793649304	17
1	411	65.068647067508	18
1	415	66.110732098198	19
1	429	69.615731071101	20
1	437	70.882055784581	21
1	453	75.775768897407	22
1	463	76.766860744085	23
1	471	79.764454666044	24
1	481	81.189109130983	25
1	489	82.368559692184	26
1	511	85.952937614064	27
1	553	91.822235688748	28
1	559	92.855658293111	29
1	565	93.979316005749	30
1	613	100.102433679143	31
1	643	103.806051203774	32
1	661	108.015067204378	33
1	669	110.010155411532	34
1	673	111.269402108736	35
1	679	112.896949125868	36
1	695	115.770390324856	37
1	713	120.458330938289	38
1	723	123.813494489757	39
1	731	125.458647988481	40
1	739	127.277037349609	41
1	777	135.714622567193	42
1	797	142.474210399014	43
1	801	144.071943869506	44
1	823	147.649276499286	45
1	843	152.890265030644	46
1	849	154.130437613271	47
1	905	164.613134542031	48
1	925	167.342872311439	49
1	931	169.255618053321	50
1	955	174.72846025682	51
1	961	175.927298167882	52
1	969	177.346368049164	53
1	977	179.019829620209	54
1	1013	181.43425270979	55
1	1021	183.42727466446	56
1	1033	185.191702933429	57
1	1053	189.448786723518	58
1	1061	190.834718528596	59
1	1091	194.839860379165	60
1	1097	196.229878376272	61
1	1127	203.233863170539	62
1	1167	209.707883541344	63
1	1175	211.021928042091	64
1	1187	212.751873164464	65
1	1203	216.112552043435	66
1	1223	221.103657444296	67
1	1255	228.307707263976	68
1	1263	229.449606156642	69
1	1283	232.327678260905	70
1	1289	233.956147151712	71
1	1305	237.465016230575	72
2	5	0.162296437295	0
2	9	0.196209621693	1
2	15	1.863485135026	2
2	33	5.50765242244	3
2	45	6.976175443004	4
2	53	8.497819087637	5
2	61	10.092859860644	6
2	65	10.123600763126	7
2	69	10.162103751113	8
2	77	11.156160015729	9
2	81	11.183087798113	10
2	85	11.228834873417	11
2	93	12.355465525891	12
2	97	12.382362161119	13
2	113	14.713263984092	14
2	117	14.766074618676	15
2	131	17.049011133368	16
2	137	18.427677184285	17
2	141	18.455580832076	18
2	145	18.506288109177	19
2	149	18.570644415284	20
2	163	21.907999774634	21
2	167	21.942346911421	22
2	177	23.496746466145	23
2	191	26.179883299838	24
2	199	28.151012434017	25
2	217	33.594810170561	26
2	225	35.304002268505	27
2	229	35.335503368732	28
2	243	37.483918735125	29
2	251	39.285091322485	30
2	259	40.947034434272	31
2	277	44.695946727195	32
2	285	45.752872422157	33
2	293	46.97362309451	34
2	299	48.348473475693	35
2	303	48.376991106757	36
2	307	48.402527022636	37
2	311	48.454357955502	38
2	315	48.480713466674	39
2	323	49.673770548188	40
2	333	51.506612372506	41
2	337	51.568562162134	42
2	345	54.405757658801	43
2	353	55.991246902177	44
2	357	56.01656042294	45
2	365	56.973451143802	46
2	381	60.658384926757	47
2	389	61.662383726004	48
2	393	61.685774861259	49
2	397	61.715225907924	50
2	417	66.123617225301	51
2	421	66.160425044936	52
2	431	69.629320684285	53
2	439	70.896834964456	54
2	455	75.787963579016	55
2	459	75.849972243595	56
2	465	76.782214787596	57
2	473	79.776007521899	58
2	477	79.803199806323	59
2	483	81.206957501179	60
2	491	82.401998388592	61
2	495	82.432378933545	62
2	499	82.455397989769	63
2	505	84.196954594385	64
2	513	85.964653000338	65
2	517	86.002547565151	66
2	529	87.980593513557	67
2	537	89.366156892097	68
2	543	90.734754765201	69
2	547	90.773207477998	70
2	555	91.833640445918	71
2	561	92.870347506384	72
2	567	93.996055440191	73
2	571	94.035935108173	74
2	575	94.067527657857	75
2	587	95.32971706159	76
2	595	97.158348319756	77
2	599	97.20669044968	78
2	615	100.117198837353	79
2	619	100.143836008166	80
2	625	101.224244766033	81
2	629	101.25347456646	82
2	633	101.29795952985	83
2	639	102.672994454778	84
2	645	103.827961018308	85
2	655	107.050457820467	86
2	663	108.030204060511	87
2	675	111.299230234539	88
2	681	112.91413278422	89
2	689	114.17838484895	90
2	701	117.321073258282	91
2	705	117.373583833278	92
2	715	120.476938085364	93
2	725	123.841441220897	94
2	733	125.468943306593	95
2	741	127.29321787338	96
2	749	128.809976726115	97
2	753	128.855287228463	98
2	761	130.717854426739	99
2	773	133.843104701922	100
2	779	135.736545089614	101
2	789	138.583586572228	102
2	803	144.093349114256	103
2	809	146.057782948748	104
2	813	146.111350285082	105
2	817	146.144451314525	106
2	825	147.659659387264	107
2	829	147.711743928184	108
2	845	152.92075086221	109
2	851	154.14934615129	110
2	855	154.225073909698	111
2	859	154.272097503567	112
2	865	155.580567200352	113
2	879	158.919537352242	114
2	899	163.258583371395	115
2	907	164.62833276148	116
2	919	165.962545232403	117
2	927	167.35741518721	118
2	933	169.278366567846	119
2	957	174.742051213648	120
2	963	175.937591967355	121
2	971	177.37060935932	122
2	979	179.036680820988	123
2	983	179.071328765008	124
2	993	180.313894029805	125
2	997	180.364636050224	126
2	1001	180.409822521093	127
2	1005	180.484118384057	128
2	1009	180.530656885596	129
2	1015	181.450386890451	130
2	1023	183.442002599907	131
2	1027	183.473936097556	132
2	1035	185.207737721353	133
2	1039	185.248633044759	134
2	1045	186.966990580026	135
2	1055	189.461617741808	136
2	1063	190.847491603885	137
2	1075	192.546574085146	138
2	1083	193.477584581855	139
2	1087	193.502627617875	140
2	1093	194.861194261768	141
2	1099	196.242213513332	142
2	1107	197.41827209732	143
2	1121	201.948235044715	144
2	1129	203.252421662753	145
2	1133	203.281517235415	146
2	1157	207.752607925591	147
2	1161	207.783827527405	148
2	1169	209.72098156269	149
2	1177	211.036643999296	150
2	1181	211.083583822822	151
2	1189	212.765807988434	152
2	1205	216.13112127445	153
2	1211	217.497931324621	154
2	1225	221.122191351158	155
2	1235	223.984811132786	156
2	1257	228.320486394444	157
2	1265	229.475429563145	158
2	1277	231.223947186634	159
2	1285	232.356927619282	160
2	1291	233.966864073893	161
2	1295	234.012093242553	162
2	1299	234.123575478859	163
2	1307	237.500490743084	164
2	1311	237.530147746444	165
2	1315	237.582890381427	166
3	7	0.182678030302	0
3	17	1.878473855116	1
3	27	4.52735579042	2
3	35	5.519199719245	3
3	43	6.964722662731	4
3	47	6.995789252395	5
3	55	8.513564411704	6
3	63	10.104240147528	7
3	67	10.142045041061	8
3	71	10.173180102195	9
3	79	11.168962785814	10
3	83	11.203768520084	11
3	87	11.243435012994	12
3	95	12.371788891855	13
3	99	12.405804613841	14
3	115	14.730671573596	15
3	139	18.44053739401	16
3	143	18.474073040192	17
3	147	18.522214349452	18
3	165	21.923022882617	19
3	175	23.48566099516	20
3	189	26.147634153266	21
3	193	26.197584068433	22
3	219	33.64190977648	23
3	227	35.321363579505	24
3	245	37.542710064005	25
3	253	39.303171123019	26
3	261	40.992179221077	27
3	271	43.292034479208	28
3	279	44.728645127353	29
3	287	45.777076256713	30
3	301	48.36456392182	31
3	305	48.389597508051	32
3	309	48.44409797805	33
3	313	48.466026701914	34
3	317	48.493132663122	35
3	331	51.495278966273	36
3	335	51.54481873199	37
3	347	54.418512938171	38
3	355	56.004556000989	39
3	359	56.033208500436	40
3	367	57.013273150557	41
3	375	58.88550629347	42
3	383	60.674892900181	43
3	391	61.674489058886	44
3	395	61.696804544896	45
3	399	61.757625537593	46
3	407	63.311955725127	47
3	419	66.14476609952	48
3	423	66.178575228245	49
3	433	69.645455075181	50
3	449	74.132771152342	51
3	457	75.823888065104	52
3	475	79.789259230604	53
3	485	81.241097665484	54
3	493	82.418408124045	55
3	497	82.442653354549	56
3	507	84.226454363503	57
3	515	85.991555349886	58
3	519	86.017629759692	59
3	527	87.96472582549	60
3	531	87.990758146397	61
3	545	90.76305018676	62
3	549	90.793700899657	63
3	569	94.010645719466	64
3	573	94.046665624745	65
3	577	94.087576990948	66
3	585	95.315245662564	67
3	589	95.344229449575	68
3	597	97.173157101999	69
3	601	97.217980834712	70
3	617	100.131120450249	71
3	627	101.241224141521	72
3	631	101.283670411492	73
3	647	103.847227404311	74
3	657	107.062885274841	75
3	665	108.062100527657	76
3	683	112.937607272457	77
3	691	114.199662453286	78
3	703	117.356598023217	79
3	717	120.494683253243	80
3	727	123.851611377134	81
3	735	125.479966324403	82
3	743	127.308499313287	83
3	751	128.840517250954	84
3	755	128.873082578751	85
3	781	135.767622893198	86
3	791	138.601114268748	87
3	811	146.075008971123	88
3	815	146.125467290861	89
3	819	146.155469470945	90
3	827	147.673996381968	91
3	831	147.738513275514	92
3	853	154.187611390996	93
3	857	154.257311737856	94
3	873	157.294079658995	95
3	881	158.930590496434	96
3	901	163.27972451876	97
3	909	164.65084785105	98
3	917	165.951454913767	99
3	921	165.994738187621	100
3	935	169.29088796461	101
3	951	172.9185881578	102
3	965	175.948597022592	103
3	973	177.386695552861	104
3	981	179.053897408465	105
3	991	180.302029533463	106
3	995	180.345255969068	107
3	999	180.381721410978	108
3	1003	180.446532770828	109
3	1007	180.515106568343	110
3	1017	181.471404509624	111
3	1025	183.452675569579	112
3	1029	183.491676817983	113
3	1037	185.220038979035	114
3	1047	186.978691150914	115
3	1057	189.498997974761	116
3	1065	190.860033650512	117
3	1073	192.505710113757	118
3	1077	192.565741823863	119
3	1085	193.490239532281	120
3	1101	196.25313738852	121
3	1123	201.959369091937	122
3	1131	203.267097903526	123
3	1135	203.304883845803	124
3	1143	204.759060696928	125
3	1151	206.44154968015	126
3	1159	207.769378542715	127
3	1163	207.801434693423	128
3	1171	209.755629164054	129
3	1179	211.062520292172	130
3	1183	211.106897866326	131
3	1191	212.784197721263	132
3	1219	219.241012129039	133
3	1227	221.142900901622	134
3	1243	225.093264001755	135
3	1259	228.335515518611	136
3	1267	229.487884257966	137
3	1275	231.199927417164	138
3	1279	231.255969871088	139
3	1293	234.000151332765	140
3	1297	234.027965296266	141
3	1309	237.51195670101	142
3	1313	237.552188958045	143
3	1317	237.598596609007	144
4	13	1.845958393893	0
4	23	4.467391263192	1
4	39	6.936569805679	2
4	51	8.481841626869	3
4	75	11.140809368958	4
4	91	12.309729642168	5
4	103	13.38991329178	6
4	111	14.683231578867	7
4	121	15.735681192123	8
4	135	18.414273716903	9
4	153	20.094250264564	10
4	171	23.455225027593	11
4	185	26.10392460719	12
4	197	28.073358528818	13
4	205	31.03853560368	14
4	233	36.293616881733	15
4	267	43.232587855717	16
4	275	44.674643171736	17
4	283	45.741396461828	18
4	327	51.45536157454	19
4	343	54.393411100308	20
4	371	58.839710931111	21
4	403	63.285720081435	22
4	445	74.095782405546	23
4	503	84.179954338024	24
4	523	87.899231021624	25
4	535	89.346761872238	26
4	541	90.722105415825	27
4	581	95.278459441757	28
4	593	97.131476136868	29
4	605	98.870920905153	30
4	623	101.209908117479	31
4	637	102.656982908314	32
4	653	107.031487290326	33
4	687	114.157080276967	34
4	699	117.310824926205	35
4	709	119.044745503517	36
4	747	128.794794447634	37
4	759	130.706620332024	38
4	765	132.504838325277	39
4	771	133.824408548314	40
4	787	138.571509539366	41
4	807	146.037757324665	42
4	835	149.244002567491	43
4	863	155.570477486479	44
4	869	157.249538407594	45
4	877	158.870435944545	46
4	885	160.34322113544	47
4	893	161.825600841691	48
4	897	163.231300777665	49
4	913	165.919006528726	50
4	939	170.269942263569	51
4	947	172.868279199528	52
4	987	180.26632513393	53
4	1043	186.944012214335	54
4	1069	192.471906485195	55
4	1081	193.46417979994	56
4	1105	197.398965361754	57
4	1111	199.121776847066	58
4	1119	201.932134336802	59
4	1139	204.710807274237	60
4	1147	206.407434021531	61
4	1155	207.740363853556	62
4	1195	214.632154997931	63
4	1209	217.486003094733	64
4	1215	219.200185586154	65
4	1233	223.961880413407	66
4	1239	225.058873211236	67
4	1247	226.846687927319	68
4	1271	231.167574908508	69
5	18	1.888473855116	0
5	28	4.53735579042	1
5	36	5.529199719245	2
5	48	7.005789252395	3
5	56	8.523564411704	4
5	88	11.253435012994	5
5	108	13.430296764113	6
5	158	20.149302646949	7
5	194	26.207584068433	8
5	220	33.65190977648	9
5	238	36.337224839924	10
5	262	41.002179221077	11
5	280	44.738645127353	12
5	288	45.787076256713	13
5	360	56.043208500436	14
5	368	57.023273150557	15
5	376	58.89550629347	16
5	384	60.684892900181	17
5	400	61.767625537593	18
5	424	66.188575228245	19
5	434	69.655455075181	20
5	508	84.236454363503	21
5	550	90.803700899657	22
5	578	94.097576990948	23
5	590	95.354229449575	24
5	610	98.908444262041	25
5	648	103.857227404311	26
5	658	107.072885274841	27
5	666	108.072100527657	28
5	684	112.947607272457	29
5	692	114.209662453286	30
5	718	120.504683253243	31
5	728	123.861611377134	32
5	736	125.489966324403	33
5	744	127.318499313287	34
5	756	128.883082578751	35
5	782	135.777622893198	36
5	792	138.611114268748	37
5	820	146.165469470945	38
5	832	147.748513275514	39
5	890	160.379648377197	40
5	902	163.28972451876	41
5	910	164.66084785105	42
5	966	175.958597022592	43
5	974	177.396695552861	44
5	1018	181.481404509624	45
5	1030	183.501676817983	46
5	1048	186.988691150914	47
5	1058	189.508997974761	48
5	1078	192.575741823863	49
5	1102	196.26313738852	50
5	1124	201.969369091937	51
5	1152	206.45154968015	52
5	1164	207.811434693423	53
5	1172	209.765629164054	54
5	1192	212.794197721263	55
5	1200	214.681949309066	56
5	1220	219.251012129039	57
5	1228	221.152900901622	58
5	1252	226.907622688132	59
5	1260	228.345515518611	60
5	1268	229.497884257966	61
5	1318	237.608596609007	62
6	25	4.478903571729	0
6	41	6.948631838499	1
6	105	13.406469754624	2
6	123	15.747094499259	3
6	155	20.125545258525	4
6	173	23.470061384459	5
6	187	26.136610947117	6
6	207	31.067374892546	7
6	235	36.307853452747	8
6	269	43.280054801855	9
6	329	51.483714208569	10
6	373	58.856605276489	11
6	405	63.299313020486	12
6	447	74.120806533483	13
6	525	87.922788206763	14
6	583	95.291842902944	15
6	607	98.883579070643	16
6	767	132.518405487804	17
6	837	149.257180260905	18
6	871	157.261389968129	19
6	887	160.358326261199	20
6	915	165.941154085812	21
6	941	170.280194874787	22
6	949	172.902492565992	23
6	989	180.290062326577	24
6	1071	192.486645100985	25
6	1113	199.132037786716	26
6	1141	204.742453545994	27
6	1149	206.427400114323	28
6	1197	214.656558913981	29
6	1217	219.211099972634	30
6	1241	225.079213269463	31
6	1249	226.883613925996	32
6	1273	231.183386981539	33
7	107	13.420296764113	0
7	125	15.775507323974	1
7	157	20.139302646949	2
7	209	31.082674921327	3
7	237	36.327224839924	4
7	609	98.898444262041	5
7	889	160.369648377197	6
7	1199	214.671949309066	7
7	1251	226.897622688132	8

