version 2
run General-1-20230921-23:28:16-9400
attr configname General
attr datetime 20230921-23:28:16
attr experiment General
attr inifile omnetpp.ini
attr iterationvars ""
attr iterationvarsf ""
attr measurement ""
attr network Network3
attr processid 9400
attr repetition 1
attr replication #1
attr resultdir results
attr runnumber 1
attr seedset 1
param Network3.node[*].transmissionTime "uniform(1s, 2s)"
param Network3.node[*].delayTime "uniform(0.01s, 0.2s)"
param Network3.node[*].processingTime exponential(0.01s)
param Network3.node[0].lossProbability 0
param Network3.node[1].lossProbability 0.1
param Network3.node[2].lossProbability 0.1
param Network3.node[3].lossProbability "0.1 / 2"
param Network3.node[4].lossProbability "0.1 / 2"
param Network3.node[6].lossProbability "0.1 * 2"
param Network3.node[7].lossProbability "0.1 * 2"
param Network3.node[5].lossProbability "0.1 * 3"

vector 0 Network3.node[0] txVector ETV
vector 1 Network3.node[2] txVector ETV
vector 2 Network3.node[4] txVector ETV
vector 3 Network3.node[7] txVector ETV
vector 4 Network3.node[1] txVector ETV
vector 5 Network3.node[3] txVector ETV
vector 6 Network3.node[5] rxVector ETV
vector 7 Network3.node[6] txVector ETV
0	1	0.089234179703	0
0	9	1.809558668991	1
0	25	3.155119394071	2
0	31	4.353220877356	3
0	37	5.871373425589	4
0	39	7.041203848205	5
0	41	8.711731889404	6
0	49	10.132839510103	7
0	57	11.967465183583	8
0	63	13.756744515735	9
0	75	15.660114687055	10
0	81	17.274053005388	11
0	93	18.688108991485	12
0	101	20.591510904374	13
0	107	22.51901948301	14
0	121	24.209224072638	15
0	123	26.158713332498	16
0	139	27.514023695727	17
0	147	29.278616266213	18
0	153	30.751091307616	19
0	161	32.506554359459	20
0	169	33.532765346701	21
0	181	35.374796240014	22
0	189	37.181901431299	23
0	193	38.241819126188	24
0	201	39.349313249468	25
0	207	41.316589579108	26
0	219	42.478208108694	27
0	221	44.237556907936	28
0	223	45.307579052757	29
0	239	47.121455414576	30
0	245	48.334189109394	31
0	247	49.594504211453	32
0	259	50.737767218269	33
0	267	51.903173331061	34
0	271	53.828373439034	35
0	279	55.75472415018	36
0	283	57.123101004056	37
0	289	58.477678237838	38
0	293	60.425648448645	39
0	301	61.601844709023	40
0	309	63.183858888346	41
0	321	64.982462476596	42
0	331	66.875351181144	43
0	339	68.274766472524	44
0	347	69.432522468857	45
0	355	70.507246361702	46
0	369	71.9746236665	47
0	371	73.401324678335	48
0	379	74.621190976474	49
0	387	75.919991200447	50
0	395	77.363799183752	51
0	397	79.069481326623	52
0	399	81.052298443282	53
0	411	82.333515334764	54
0	419	84.172294743482	55
0	423	85.65257292649	56
0	441	87.158036857268	57
0	451	88.90956467705	58
0	467	90.261685988523	59
0	475	92.231250495307	60
0	479	93.743912197772	61
0	487	95.190011703299	62
0	493	96.393069547025	63
0	501	97.748774717684	64
0	517	99.611120970576	65
0	525	100.668050404527	66
0	527	102.261482859385	67
0	535	103.427172499598	68
0	537	104.684975392773	69
0	545	106.394362645579	70
0	553	107.822981475975	71
0	561	109.165435591835	72
0	569	110.24382249185	73
0	577	111.998683970777	74
0	579	113.472687897628	75
0	587	115.464138466522	76
0	589	117.152254567604	77
0	599	118.690881852183	78
0	607	120.30618608406	79
0	613	121.570735396475	80
0	621	122.690192444606	81
0	629	124.672609889072	82
0	631	126.106202219271	83
0	647	127.334807028652	84
0	659	128.832790335997	85
0	675	129.892239411718	86
0	683	131.059053230223	87
0	699	132.334523417645	88
0	701	133.961445366389	89
0	721	135.055022464723	90
0	729	136.785113672151	91
0	741	138.105066502823	92
0	749	139.609585671809	93
0	757	141.419574381907	94
0	765	143.063935464139	95
0	773	144.737633883146	96
0	775	146.593462255442	97
0	787	147.840382740957	98
0	799	149.816863723922	99
0	807	151.737561068389	100
0	815	153.392522212708	101
0	823	154.493243469748	102
0	831	156.428198096467	103
0	839	157.876805612709	104
0	851	159.805072565222	105
0	861	160.88739866217	106
0	869	162.093852720348	107
0	877	163.881404555527	108
0	879	165.668520851185	109
0	893	167.199979173377	110
0	901	169.060216168998	111
0	909	170.33830121498	112
0	911	172.045257459985	113
0	919	173.80610065943	114
0	921	174.867940738922	115
0	927	176.642837387169	116
0	935	177.999291248046	117
0	939	179.628962664059	118
0	951	181.093195677162	119
0	959	182.799563231538	120
0	971	183.925059315874	121
0	979	185.737857030597	122
0	987	187.304988386468	123
0	989	188.863066929751	124
0	993	190.185196440327	125
0	995	192.007926449771	126
0	1003	193.436675233194	127
0	1019	195.180736482502	128
0	1021	196.314890007381	129
0	1035	198.030835710358	130
0	1043	199.341803378318	131
0	1051	200.488128147912	132
0	1055	201.884131362554	133
0	1063	203.497851036381	134
0	1069	205.358894179001	135
0	1077	206.944242638427	136
0	1081	208.626696345986	137
0	1097	210.043420306298	138
0	1105	211.270717847518	139
0	1117	212.978034448003	140
0	1125	214.406966785326	141
0	1133	216.207299028415	142
0	1139	218.066949981157	143
0	1145	219.077628203327	144
0	1157	220.716755053386	145
0	1165	221.781495033888	146
0	1175	223.405165445184	147
0	1183	224.40900926188	148
0	1199	225.496557382526	149
0	1213	226.724975123195	150
0	1215	228.296150866555	151
0	1223	229.549022853965	152
0	1231	230.76545091079	153
0	1239	231.836750519354	154
0	1241	233.135457384758	155
0	1249	234.553593517406	156
0	1261	236.226634575877	157
0	1265	237.516932575389	158
0	1273	238.915591634701	159
1	3	0.099235323579	0
1	11	1.824613194316	1
1	43	8.753406478629	2
1	65	13.768017061055	3
1	77	15.701472831251	4
1	83	17.295907792775	5
1	95	18.699587899488	6
1	103	20.605784421073	7
1	109	22.53945360714	8
1	141	27.530323404446	9
1	149	29.302193911641	10
1	183	35.389704193204	11
1	191	37.193195043169	12
1	195	38.254377205633	13
1	203	39.367708872171	14
1	209	41.35451124196	15
1	225	45.331958009266	16
1	261	50.75938460191	17
1	285	57.133918745783	18
1	311	63.197223674672	19
1	323	65.00108659333	20
1	381	74.638971918766	21
1	413	82.345015195644	22
1	421	84.186348659171	23
1	425	85.673755382533	24
1	443	87.170547776448	25
1	453	88.919574814986	26
1	477	92.250802498502	27
1	481	93.788336346542	28
1	495	96.40333523105	29
1	503	97.770573300799	30
1	519	99.628224234391	31
1	529	102.278474442145	32
1	539	104.7012303058	33
1	547	106.405516964681	34
1	563	109.175620619475	35
1	601	118.719071342008	36
1	609	120.399922128511	37
1	615	121.597481060269	38
1	649	127.348863268823	39
1	661	128.864549814941	40
1	677	129.908026967261	41
1	685	131.069583454264	42
1	703	133.97212143026	43
1	723	135.071345400531	44
1	731	136.836707915955	45
1	743	138.126270451017	46
1	759	141.429626918051	47
1	789	147.850974374767	48
1	817	153.402808980498	49
1	841	157.887265296266	50
1	853	159.817303563284	51
1	863	160.89819113785	52
1	881	165.687293951294	53
1	953	181.111192744437	54
1	981	185.777272374577	55
1	997	192.026780785521	56
1	1045	199.357166581673	57
1	1065	203.508603282674	58
1	1083	208.664580582918	59
1	1099	210.0589480582	60
1	1141	218.117576130816	61
1	1147	219.095967528337	62
1	1167	221.791986858187	63
1	1177	223.446730956634	64
1	1201	225.51228779157	65
1	1217	228.310159652099	66
1	1225	229.565475884526	67
1	1233	230.779532826453	68
1	1251	234.570523636734	69
1	1267	237.531730391928	70
2	5	0.178726466452	0
2	13	1.853341430985	1
2	17	1.890760262736	2
2	21	1.935567623814	3
2	35	4.394135977413	4
2	45	8.765607347076	5
2	67	13.778212630606	6
2	71	13.826171372636	7
2	79	15.723504507922	8
2	85	17.31368614373	9
2	89	17.342870453628	10
2	97	18.731856728348	11
2	105	20.6259410156	12
2	111	22.553744502011	13
2	115	22.583741084662	14
2	119	22.613579027132	15
2	127	26.209863708211	16
2	131	26.24465880163	17
2	135	26.2738063464	18
2	143	27.566835931162	19
2	151	29.324128136944	20
2	165	32.527918866031	21
2	173	33.555051442461	22
2	177	33.614569348598	23
2	185	35.413642337639	24
2	197	38.264743839623	25
2	205	39.378477347824	26
2	211	41.399583486292	27
2	215	41.439898678684	28
2	227	45.34577592095	29
2	231	45.371716437234	30
2	235	45.405208847604	31
2	251	49.648680039309	32
2	255	49.679125263433	33
2	263	50.772055061095	34
2	275	53.861133342174	35
2	287	57.15096410707	36
2	297	60.471372471494	37
2	313	63.237189662591	38
2	317	63.259810249612	39
2	325	65.01320937465	40
2	329	65.042837680754	41
2	335	66.941571177136	42
2	359	70.536996449804	43
2	363	70.574308708364	44
2	367	70.60747175894	45
2	383	74.665174940117	46
2	403	81.103990665035	47
2	407	81.132355652197	48
2	415	82.379054236414	49
2	427	85.689131335465	50
2	431	85.719498132034	51
2	435	85.756779082073	52
2	439	85.798804321863	53
2	445	87.203480462688	54
2	449	87.228697578807	55
2	455	88.959493410919	56
2	459	88.990344332321	57
2	463	89.032617148751	58
2	483	93.82149390461	59
2	491	95.266859882858	60
2	497	96.421945670536	61
2	505	97.787259297758	62
2	509	97.816237027061	63
2	513	97.841071372161	64
2	521	99.651133353358	65
2	531	102.29563126359	66
2	541	104.712095207782	67
2	549	106.415985905257	68
2	565	109.194390353082	69
2	573	110.286935159427	70
2	593	117.18725547124	71
2	597	117.235727735293	72
2	603	118.75269570133	73
2	611	120.412796958474	74
2	617	121.626306000313	75
2	625	122.720257862614	76
2	635	126.157303448122	77
2	639	126.195185718271	78
2	643	126.245158503788	79
2	651	127.367461331674	80
2	655	127.429405194068	81
2	663	128.893149980784	82
2	667	128.924307148057	83
2	671	128.950634964907	84
2	679	129.920776016004	85
2	687	131.086460078537	86
2	691	131.116877238673	87
2	695	131.14703956608	88
2	705	134.003295439526	89
2	709	134.091382978209	90
2	713	134.127786108392	91
2	717	134.162817606621	92
2	725	135.090853036379	93
2	733	136.852923999754	94
2	737	136.883265765497	95
2	745	138.140663384037	96
2	761	141.443714291963	97
2	769	143.098069880046	98
2	779	146.631200664127	99
2	783	146.662992196507	100
2	791	147.863476910816	101
2	795	147.892807892626	102
2	811	151.768484335756	103
2	819	153.414158133756	104
2	827	154.522437866055	105
2	843	157.926325755833	106
2	847	157.972863197392	107
2	855	159.85080358049	108
2	859	159.890382472879	109
2	865	160.916597272107	110
2	883	165.698918334621	111
2	887	165.739121990161	112
2	891	165.795841657056	113
2	925	174.918100582926	114
2	947	179.682060954379	115
2	955	181.136538712413	116
2	963	182.830270644032	117
2	967	182.900669859589	118
2	983	185.79706299483	119
2	999	192.05301055308	120
2	1007	193.480076552063	121
2	1011	193.514536298251	122
2	1015	193.575744194918	123
2	1025	196.343343598976	124
2	1029	196.379690788437	125
2	1033	196.415450146105	126
2	1039	198.084561284951	127
2	1047	199.371868074403	128
2	1059	201.907576931338	129
2	1067	203.540530409212	130
2	1085	208.682380095297	131
2	1089	208.719070299622	132
2	1093	208.757230718909	133
2	1101	210.070729480002	134
2	1113	211.325121694297	135
2	1121	213.01576373727	136
2	1137	216.251207699019	137
2	1143	218.137934918417	138
2	1149	219.131492116189	139
2	1153	219.164275595233	140
2	1169	221.812295295673	141
2	1173	221.84530259076	142
2	1179	223.472593111374	143
2	1191	224.493881008869	144
2	1195	224.53407881781	145
2	1203	225.522732894683	146
2	1207	225.547480390749	147
2	1211	225.603843418999	148
2	1219	228.340946274694	149
2	1227	229.577110306351	150
2	1235	230.811248216558	151
2	1253	234.595057328017	152
2	1257	234.617980710051	153
2	1269	237.54536087015	154
3	7	0.189695305177	0
3	15	1.874900228091	1
3	19	1.901037959012	2
3	23	1.953747696928	3
3	47	8.77939824182	4
3	55	10.18659638231	5
3	69	13.813085084553	6
3	73	13.844951431139	7
3	87	17.331362618674	8
3	91	17.381801264417	9
3	99	18.746926339918	10
3	113	22.568153327423	11
3	117	22.593858462799	12
3	129	26.23463005711	13
3	133	26.256318518965	14
3	137	26.296152127874	15
3	145	27.584850494635	16
3	159	30.796943110947	17
3	167	32.545658774553	18
3	175	33.599983169814	19
3	179	33.640695411517	20
3	187	35.431767057019	21
3	199	38.274870194367	22
3	213	41.423091042674	23
3	217	41.489938216957	24
3	229	45.356933801936	25
3	233	45.384145440041	26
3	237	45.416627562923	27
3	253	49.668442891625	28
3	257	49.696522131345	29
3	265	50.79617468659	30
3	277	53.877148171412	31
3	299	60.485599652198	32
3	315	63.247346214382	33
3	319	63.286279598022	34
3	327	65.032677677707	35
3	337	66.954510898569	36
3	353	69.474915902974	37
3	361	70.554582230408	38
3	365	70.586145903284	39
3	377	73.462356770619	40
3	385	74.67604737794	41
3	393	75.966568442449	42
3	405	81.116065564388	43
3	409	81.148802132069	44
3	417	82.391521978393	45
3	429	85.708422644521	46
3	433	85.745122412109	47
3	437	85.778187186459	48
3	447	87.213706297941	49
3	457	88.979304679617	50
3	461	89.013194886661	51
3	465	89.054802431916	52
3	473	90.309437445098	53
3	485	93.836793214482	54
3	499	96.432254384003	55
3	507	97.803091545627	56
3	511	97.828517409996	57
3	515	97.864941214614	58
3	523	99.664662052205	59
3	533	102.308109777621	60
3	543	104.72520228608	61
3	551	106.437919547859	62
3	567	109.205593311639	63
3	575	110.302915106744	64
3	595	117.213150203623	65
3	605	118.782442167362	66
3	619	121.653403510759	67
3	627	122.754423560162	68
3	637	126.177803200556	69
3	641	126.226982356394	70
3	645	126.258265794045	71
3	653	127.394587376572	72
3	657	127.441171824823	73
3	665	128.913391671056	74
3	669	128.938714083444	75
3	673	128.961710902145	76
3	681	129.937285523931	77
3	689	131.098420876494	78
3	693	131.128016362613	79
3	697	131.160666651829	80
3	707	134.050325236048	81
3	711	134.115970548135	82
3	715	134.148834407293	83
3	719	134.1771717905	84
3	727	135.100962520891	85
3	735	136.87034519221	86
3	739	136.894599051581	87
3	747	138.150895201615	88
3	763	141.471457392086	89
3	771	143.119209061815	90
3	781	146.648629836339	91
3	785	146.691545995982	92
3	793	147.881270337791	93
3	797	147.916048339376	94
3	813	151.785115245721	95
3	821	153.438978895299	96
3	829	154.536654804752	97
3	845	157.962285412084	98
3	849	157.996691097159	99
3	857	159.873567988803	100
3	867	160.931014335794	101
3	875	162.149003118867	102
3	885	165.714884268666	103
3	889	165.766039064223	104
3	917	172.103754048944	105
3	945	179.669557322018	106
3	949	179.715590278754	107
3	957	181.14762904747	108
3	965	182.883777199867	109
3	969	182.917252437341	110
3	977	183.995534707918	111
3	985	185.809048924581	112
3	1001	192.070612372574	113
3	1009	193.499461475437	114
3	1013	193.532223287584	115
3	1017	193.588204481547	116
3	1027	196.369037170776	117
3	1031	196.39490768053	118
3	1041	198.102011412813	119
3	1049	199.384909149001	120
3	1061	201.926539092012	121
3	1075	205.423233871057	122
3	1087	208.69430061852	123
3	1091	208.741685288285	124
3	1095	208.770152922945	125
3	1103	210.081323316279	126
3	1111	211.313655874048	127
3	1115	211.33715453292	128
3	1123	213.028800231404	129
3	1151	219.150636784206	130
3	1155	219.182935387257	131
3	1171	221.834453028455	132
3	1181	223.490484293444	133
3	1189	224.477536205808	134
3	1193	224.509188451151	135
3	1197	224.569455212403	136
3	1205	225.532758519217	137
3	1209	225.586572110357	138
3	1221	228.368393730592	139
3	1229	229.600542619396	140
3	1237	230.841635596372	141
3	1255	234.605926016073	142
3	1259	234.630108629945	143
3	1271	237.557016741609	144
4	27	3.181251070984	0
4	33	4.383247182127	1
4	51	10.143024085883	2
4	59	11.978554697714	3
4	125	26.197158382177	4
4	155	30.775110513516	5
4	163	32.516841507882	6
4	171	33.544091217283	7
4	241	47.132227016274	8
4	249	49.631242573066	9
4	269	51.915448742096	10
4	273	53.841862087778	11
4	281	55.774119922589	12
4	291	58.505229551428	13
4	295	60.439684071432	14
4	303	61.632950480831	15
4	333	66.893952742045	16
4	341	68.287117278689	17
4	349	69.442893982317	18
4	357	70.521706361173	19
4	373	73.41164945798	20
4	389	75.93018627842	21
4	401	81.082329890218	22
4	469	90.275308298134	23
4	489	95.249385413376	24
4	555	107.851679863551	25
4	571	110.258845288931	26
4	581	113.497806481998	27
4	591	117.162284792851	28
4	623	122.703293612557	29
4	633	126.134684650914	30
4	751	139.619712510461	31
4	767	143.082574809229	32
4	777	146.606337338498	33
4	801	149.837653672784	34
4	809	151.754852834478	35
4	825	154.510850821796	36
4	833	156.461552393717	37
4	871	162.104979748554	38
4	895	167.218164096389	39
4	903	169.070254177888	40
4	913	172.060763066306	41
4	923	174.90061452125	42
4	929	176.676915011528	43
4	937	178.039239582056	44
4	941	179.639685176459	45
4	961	182.810969814959	46
4	973	183.960074441901	47
4	991	188.902282902553	48
4	1005	193.450648228484	49
4	1023	196.333202573637	50
4	1037	198.071798231331	51
4	1053	200.511219907058	52
4	1057	201.894448298224	53
4	1071	205.391742126584	54
4	1079	206.956833011037	55
4	1107	211.290226376649	56
4	1119	212.994911849963	57
4	1127	214.422529185575	58
4	1135	216.228434208013	59
4	1159	220.774252981397	60
4	1185	224.419140261078	61
4	1243	233.145718293853	62
4	1263	236.239079415886	63
4	1275	238.936141109163	64
5	29	3.207484284576	0
5	53	10.162806544699	1
5	61	11.994889123293	2
5	157	30.785616125411	3
5	243	47.156200794168	4
5	305	61.643192220255	5
5	343	68.307007941593	6
5	351	69.464869160774	7
5	375	73.445067078924	8
5	391	75.946454441258	9
5	471	90.288279823202	10
5	557	107.878704631676	11
5	583	113.508184134577	12
5	753	139.641683711228	13
5	803	149.848493246277	14
5	835	156.480739185763	15
5	873	162.130507328318	16
5	897	167.238637618398	17
5	905	169.083282786956	18
5	915	172.084651013942	19
5	931	176.694749372871	20
5	943	179.655242502485	21
5	975	183.972236938222	22
5	1073	205.409962835951	23
5	1109	211.302037190933	24
5	1129	214.432609284398	25
5	1161	220.785455428995	26
5	1187	224.431743589799	27
5	1245	233.160813125122	28
5	1277	238.965986024926	29
6	48	8.78939824182	0
6	74	13.854951431139	1
6	92	17.391801264417	2
6	138	26.306152127874	3
6	168	32.555658774553	4
6	218	41.499938216957	5
6	238	45.426627562923	6
6	258	49.706522131345	7
6	266	50.80617468659	8
6	278	53.887148171412	9
6	300	60.495599652198	10
6	308	61.669351864549	11
6	320	63.296279598022	12
6	346	68.339043804726	13
6	394	75.976568442449	14
6	410	81.158802132069	15
6	418	82.401521978393	16
6	466	89.064802431916	17
6	474	90.319437445098	18
6	486	93.846793214482	19
6	500	96.442254384003	20
6	516	97.874941214614	21
6	534	102.318109777621	22
6	552	106.447919547859	23
6	576	110.312915106744	24
6	586	113.528565598057	25
6	606	118.792442167362	26
6	620	121.663403510759	27
6	628	122.764423560162	28
6	646	126.268265794045	29
6	658	127.451171824823	30
6	674	128.971710902145	31
6	682	129.947285523931	32
6	698	131.170666651829	33
6	720	134.1871717905	34
6	728	135.110962520891	35
6	740	136.904599051581	36
6	748	138.160895201615	37
6	756	139.667648395218	38
6	764	141.481457392086	39
6	772	143.129209061815	40
6	786	146.701545995982	41
6	806	149.880069024721	42
6	814	151.795115245721	43
6	822	153.448978895299	44
6	838	156.53298501115	45
6	850	158.006691097159	46
6	900	167.271258193811	47
6	908	169.116333650242	48
6	950	179.725590278754	49
6	958	181.15762904747	50
6	970	182.927252437341	51
6	978	184.005534707918	52
6	986	185.819048924581	53
6	1002	192.080612372574	54
6	1018	193.598204481547	55
6	1050	199.394909149001	56
6	1076	205.433233871057	57
6	1096	208.780152922945	58
6	1104	210.091323316279	59
6	1116	211.34715453292	60
6	1124	213.038800231404	61
6	1156	219.192935387257	62
6	1182	223.500484293444	63
6	1198	224.579455212403	64
6	1222	228.378393730592	65
6	1230	229.610542619396	66
6	1260	234.640108629945	67
6	1280	238.994148488016	68
7	307	61.659351864549	0
7	345	68.329043804726	1
7	559	107.898552901577	2
7	585	113.518565598057	3
7	755	139.657648395218	4
7	805	149.870069024721	5
7	837	156.52298501115	6
7	899	167.261258193811	7
7	907	169.106333650242	8
7	933	176.706997161893	9
7	1131	214.449734894504	10
7	1163	220.800950273415	11
7	1247	233.20460740537	12
7	1279	238.984148488016	13

