version 2
run General-4-20230921-23:28:16-9400
attr configname General
attr datetime 20230921-23:28:16
attr experiment General
attr inifile omnetpp.ini
attr iterationvars ""
attr iterationvarsf ""
attr measurement ""
attr network Network3
attr processid 9400
attr repetition 4
attr replication #4
attr resultdir results
attr runnumber 4
attr seedset 4
param Network3.node[*].transmissionTime "uniform(1s, 2s)"
param Network3.node[*].delayTime "uniform(0.01s, 0.2s)"
param Network3.node[*].processingTime exponential(0.01s)
param Network3.node[0].lossProbability 0
param Network3.node[1].lossProbability 0.1
param Network3.node[2].lossProbability 0.1
param Network3.node[3].lossProbability "0.1 / 2"
param Network3.node[4].lossProbability "0.1 / 2"
param Network3.node[6].lossProbability "0.1 * 2"
param Network3.node[7].lossProbability "0.1 * 2"
param Network3.node[5].lossProbability "0.1 * 3"

vector 0 Network3.node[0] txVector ETV
vector 1 Network3.node[1] txVector ETV
vector 2 Network3.node[4] txVector ETV
vector 3 Network3.node[7] txVector ETV
vector 4 Network3.node[5] rxVector ETV
vector 5 Network3.node[3] txVector ETV
vector 6 Network3.node[2] txVector ETV
vector 7 Network3.node[6] txVector ETV
0	1	0.193735669288	0
0	13	1.740967922532	1
0	15	3.520350848478	2
0	25	5.092707340293	3
0	33	7.049360306854	4
0	35	8.12430889361	5
0	43	9.30017012862	6
0	55	10.56114220751	7
0	63	11.784174728128	8
0	67	12.867343822881	9
0	75	14.796750477669	10
0	83	16.74382450447	11
0	99	18.120243975115	12
0	107	20.064194648215	13
0	115	21.584869049644	14
0	123	23.371622195622	15
0	131	25.299030806093	16
0	139	26.844407720181	17
0	147	27.84733431569	18
0	149	28.851255212833	19
0	159	30.46307703193	20
0	163	31.658381742115	21
0	169	32.888278642126	22
0	177	34.431568955925	23
0	185	35.704040417137	24
0	193	36.992077245765	25
0	201	38.544003681668	26
0	213	39.678756287477	27
0	221	41.045092425465	28
0	233	43.013766555504	29
0	239	44.165652158127	30
0	255	45.268447398596	31
0	267	47.015695841672	32
0	269	48.059618349807	33
0	277	49.918339199541	34
0	283	51.153056248478	35
0	295	52.699462080994	36
0	303	53.879935631915	37
0	311	55.268985962882	38
0	319	56.798058345602	39
0	325	57.981578333224	40
0	349	59.064285944137	41
0	359	60.257800908447	42
0	361	62.15702528289	43
0	363	63.512361913607	44
0	371	65.445904542612	45
0	379	66.936840702932	46
0	385	68.783033602325	47
0	393	70.690495808761	48
0	407	72.262320502348	49
0	411	73.616172569025	50
0	427	75.155620762067	51
0	429	76.293148608333	52
0	437	77.825377132664	53
0	445	79.316447880272	54
0	461	81.161986974687	55
0	463	82.415599500448	56
0	471	84.405051895105	57
0	477	86.323235196448	58
0	485	87.839981959122	59
0	491	89.342536479155	60
0	499	90.64948169297	61
0	519	92.572595019978	62
0	535	93.896316033476	63
0	537	95.461173138735	64
0	539	97.422847731658	65
0	559	99.038969719936	66
0	569	100.846707673198	67
0	575	102.02878267962	68
0	579	103.125633102064	69
0	595	105.019658816899	70
0	613	106.366866228557	71
0	621	108.031537194424	72
0	629	110.015502905161	73
0	639	111.825585171035	74
0	659	113.047835896876	75
0	671	114.366155009637	76
0	683	115.892583155692	77
0	685	117.734623043718	78
0	697	119.004528823694	79
0	705	120.023099722493	80
0	717	121.956737024629	81
0	721	122.996546496557	82
0	729	123.99745317168	83
0	749	125.908959289467	84
0	751	127.022496482976	85
0	759	128.261241136272	86
0	765	130.248153233123	87
0	767	131.968548013051	88
0	779	132.989721462517	89
0	781	134.085766608515	90
0	787	136.063762785555	91
0	793	137.673683952694	92
0	801	139.646730470392	93
0	817	141.333693997157	94
0	819	143.288795366106	95
0	825	144.56711991496	96
0	833	145.763788027145	97
0	841	146.901926805187	98
0	849	148.809629505655	99
0	853	149.935116105169	100
0	861	151.570683739535	101
0	865	153.109704819429	102
0	873	154.572910015625	103
0	883	156.076078834399	104
0	891	157.62226762312	105
0	899	159.403972979323	106
0	907	160.737241452946	107
0	913	161.837085831365	108
0	921	163.11239973634	109
0	927	164.725492163948	110
0	929	166.502360894731	111
0	945	167.631554427477	112
0	953	169.242890498056	113
0	959	170.604292744459	114
0	967	172.407983399849	115
0	975	173.927184259906	116
0	977	175.410432014769	117
0	995	177.366449439121	118
0	1003	179.281447908995	119
0	1005	180.464235044471	120
0	1013	182.002840465088	121
0	1021	183.535265253544	122
0	1029	185.139875832632	123
0	1037	186.556003082231	124
0	1055	188.067614778331	125
0	1063	189.660145317357	126
0	1069	190.941599767109	127
0	1073	191.99271565854	128
0	1083	193.299724726625	129
0	1087	194.50510300781	130
0	1107	195.858139181895	131
0	1127	197.756096253091	132
0	1135	199.273451910041	133
0	1143	200.878888689134	134
0	1149	202.604898694357	135
0	1157	204.325455944207	136
0	1165	205.847954314122	137
0	1173	207.308456658306	138
0	1181	208.915283541814	139
0	1191	209.936257453556	140
0	1207	211.403241991917	141
0	1219	213.03432651997	142
0	1221	214.452205984308	143
0	1229	216.005848025358	144
0	1241	217.817941982685	145
0	1251	219.269811474638	146
0	1263	220.891858082185	147
0	1271	222.502690491885	148
0	1277	223.66033319143	149
0	1285	224.694388334093	150
0	1293	226.464344926098	151
0	1299	228.350859234728	152
0	1301	230.298907609576	153
0	1303	232.242258980091	154
0	1311	233.769402007724	155
0	1317	235.693128861639	156
0	1325	237.042349739385	157
0	1327	238.885269164958	158
1	3	0.239738625497	0
1	17	3.534837127214	1
1	27	5.108436951058	2
1	37	8.154399302601	3
1	57	10.57263592606	4
1	77	14.810543678854	5
1	117	21.606569405711	6
1	125	23.383575144883	7
1	171	32.898623289751	8
1	179	34.471460285624	9
1	187	35.719276515017	10
1	195	37.004073528394	11
1	257	45.279323700271	12
1	279	49.936620927405	13
1	285	51.166092225324	14
1	297	52.719694186715	15
1	321	56.828416490934	16
1	327	57.993280668816	17
1	409	72.279890468244	18
1	413	73.630607866789	19
1	447	79.331820300542	20
1	473	84.418498564905	21
1	487	87.865900003974	22
1	501	90.665781883757	23
1	541	97.433879536655	24
1	571	100.871174763576	25
1	615	106.40670456119	26
1	623	108.04716797608	27
1	661	113.0617479887	28
1	699	119.040911408819	29
1	719	121.968674027371	30
1	723	123.044095410599	31
1	731	124.032432038463	32
1	753	127.033254301574	33
1	761	128.283545031001	34
1	783	134.103404238819	35
1	789	136.111671205296	36
1	843	146.962269196811	37
1	851	148.821811637041	38
1	875	154.602871527986	39
1	885	156.088004807976	40
1	931	166.514319406138	41
1	947	167.68332217209	42
1	961	170.619301981774	43
1	979	175.427229880926	44
1	1015	182.030535499848	45
1	1023	183.556873587325	46
1	1031	185.159441174465	47
1	1065	189.678836685234	48
1	1071	190.9520655739	49
1	1137	199.283723395503	50
1	1145	200.895458568376	51
1	1159	204.341306847885	52
1	1167	205.864554948495	53
1	1175	207.327322567906	54
1	1183	208.933819043064	55
1	1193	209.957742020982	56
1	1223	214.463199783169	57
1	1243	217.830100552462	58
1	1279	223.672037458979	59
1	1313	233.785575638593	60
1	1319	235.706786857459	61
1	1329	238.896890725889	62
2	5	0.259130013166	0
2	9	0.284107166795	1
2	23	3.588223773425	2
2	39	8.169649289434	3
2	47	9.32841329388	4
2	51	9.355539806256	5
2	59	10.587345178887	6
2	71	12.892162630878	7
2	79	14.825935523581	8
2	87	16.802313385154	9
2	91	16.842479975039	10
2	95	16.885985161481	11
2	103	18.151555525849	12
2	111	20.095091009981	13
2	135	25.32898705195	14
2	143	26.898551620779	15
2	153	28.886571531059	16
2	157	28.938661458466	17
2	167	31.679166492439	18
2	173	32.908791879538	19
2	205	38.578749663385	20
2	209	38.631930653528	21
2	217	39.720180065477	22
2	225	41.094581121619	23
2	229	41.129349149791	24
2	237	43.057816763513	25
2	243	44.18694247042	26
2	247	44.21784360108	27
2	251	44.269676641219	28
2	259	45.294565887207	29
2	263	45.341087059994	30
2	273	48.089292007376	31
2	291	51.230267902334	32
2	299	52.76047575929	33
2	307	53.921230478698	34
2	315	55.296976831756	35
2	323	56.848526187435	36
2	329	58.014151111356	37
2	333	58.040594802316	38
2	337	58.064259372685	39
2	341	58.102094891439	40
2	345	58.123916878268	41
2	353	59.101384542845	42
2	357	59.14953056339	43
2	367	63.543432279334	44
2	375	65.481508744546	45
2	383	67.010237097637	46
2	389	68.846934524255	47
2	397	70.718917493293	48
2	401	70.742692725678	49
2	405	70.779470148594	50
2	415	73.641836649087	51
2	419	73.686060862629	52
2	423	73.730540053615	53
2	433	76.354766072159	54
2	441	77.882916918528	55
2	449	79.352954954529	56
2	453	79.400536327561	57
2	457	79.424516026568	58
2	467	82.466544968705	59
2	475	84.468960893833	60
2	481	86.368395641486	61
2	495	89.394437726755	62
2	507	90.732269056355	63
2	511	90.784742465094	64
2	515	90.819180022225	65
2	523	92.625681677148	66
2	527	92.68021924502	67
2	531	92.737890324496	68
2	543	97.451169355513	69
2	547	97.48234432169	70
2	551	97.505066048422	71
2	555	97.55852345742	72
2	563	99.086701436206	73
2	567	99.172090701185	74
2	573	100.883223703005	75
2	583	103.151812634867	76
2	587	103.204902086741	77
2	591	103.232071458813	78
2	599	105.058368828994	79
2	603	105.090424407472	80
2	607	105.116862185309	81
2	611	105.150591073659	82
2	625	108.093285005119	83
2	633	110.063690049274	84
2	637	110.142676792807	85
2	643	111.859309149648	86
2	647	111.895139755596	87
2	651	111.926043300952	88
2	655	111.957098992444	89
2	663	113.075772399039	90
2	667	113.184672203686	91
2	675	114.41067389648	92
2	679	114.442897604625	93
2	689	117.775208199156	94
2	693	117.800602342901	95
2	709	120.057514886841	96
2	713	120.110768643632	97
2	733	124.061959267639	98
2	737	124.100634058571	99
2	741	124.133370156336	100
2	745	124.167992749777	101
2	771	132.005426499391	102
2	775	132.057104808779	103
2	797	137.696086814152	104
2	805	139.680521463695	105
2	809	139.71672310492	106
2	813	139.743106958396	107
2	823	143.336963746296	108
2	829	144.587987000379	109
2	837	145.797629243272	110
2	857	149.956702380755	111
2	869	153.143248378937	112
2	877	154.624032587834	113
2	881	154.651983298728	114
2	887	156.110011393115	115
2	895	157.664649513232	116
2	903	159.446183315638	117
2	911	160.786292607001	118
2	917	161.874440278807	119
2	925	163.144725321142	120
2	937	166.560646370967	121
2	941	166.607934142683	122
2	949	167.704784921559	123
2	957	169.297709206079	124
2	971	172.443619526026	125
2	981	175.438499362213	126
2	985	175.468274401361	127
2	989	175.492506063051	128
2	993	175.555578643258	129
2	999	177.397316392486	130
2	1009	180.508819514718	131
2	1033	185.182077882527	132
2	1041	186.578551714242	133
2	1045	186.611785309833	134
2	1049	186.648960709522	135
2	1053	186.682837186617	136
2	1059	188.096520144586	137
2	1067	189.694526421895	138
2	1077	192.031821711891	139
2	1081	192.074091526796	140
2	1091	194.532732089254	141
2	1095	194.571398419617	142
2	1099	194.634357217045	143
2	1103	194.661871094053	144
2	1111	195.914433223268	145
2	1115	195.941262473748	146
2	1119	196.006272326212	147
2	1123	196.074711782928	148
2	1131	197.795778161359	149
2	1147	200.911528714922	150
2	1153	202.641426666806	151
2	1161	204.36382093623	152
2	1185	208.946193675461	153
2	1189	209.002579692395	154
2	1199	210.003480913178	155
2	1203	210.03467561591	156
2	1211	211.434660346951	157
2	1215	211.49045538406	158
2	1233	216.048035571697	159
2	1237	216.086096237545	160
2	1245	217.843474853169	161
2	1249	217.868144878484	162
2	1255	219.300186330723	163
2	1259	219.336802126195	164
2	1267	220.928428003689	165
2	1275	222.53747382576	166
2	1289	224.715392423607	167
2	1297	226.501002068669	168
2	1307	232.27561256499	169
2	1315	233.803490065567	170
3	7	0.271564617407	0
3	11	0.297023831605	1
3	21	3.573336861317	2
3	31	5.148963650836	3
3	41	8.200075100577	4
3	49	9.340406594865	5
3	53	9.370245739227	6
3	61	10.603651605272	7
3	73	12.9029498857	8
3	81	14.840341884109	9
3	89	16.823385170121	10
3	93	16.853480367332	11
3	97	16.897042994498	12
3	105	18.166124736357	13
3	113	20.106471400594	14
3	129	23.409536017234	15
3	137	25.339737340202	16
3	145	26.922314855679	17
3	155	28.901824610654	18
3	175	32.929774754897	19
3	191	35.781939052956	20
3	207	38.606435051953	21
3	211	38.646084693192	22
3	219	39.757558593032	23
3	227	41.112724829545	24
3	231	41.149478506184	25
3	245	44.201953473324	26
3	249	44.23258926155	27
3	253	44.285978974845	28
3	261	45.309359710163	29
3	265	45.356291766774	30
3	275	48.100607089117	31
3	289	51.187630917575	32
3	293	51.243733179215	33
3	301	52.783835988447	34
3	309	53.993469452195	35
3	317	55.31302506778	36
3	331	58.029644279984	37
3	335	58.05077169435	38
3	339	58.076095358931	39
3	343	58.112479651232	40
3	347	58.136514874775	41
3	355	59.129839731624	42
3	369	63.585076097058	43
3	377	65.493827598852	44
3	391	68.863377407212	45
3	399	70.72951207551	46
3	403	70.759171650978	47
3	417	73.675786118723	48
3	421	73.720224706621	49
3	425	73.745848914147	50
3	435	76.383619721031	51
3	443	77.910714871498	52
3	451	79.382438612664	53
3	455	79.413922969921	54
3	459	79.465541617979	55
3	469	82.490445319465	56
3	483	86.385287848661	57
3	497	89.409447945243	58
3	505	90.701681762456	59
3	509	90.763558503776	60
3	513	90.805781857068	61
3	517	90.831623937993	62
3	525	92.658398942191	63
3	529	92.699571604595	64
3	533	92.763357208109	65
3	545	97.463870952332	66
3	549	97.492987282595	67
3	553	97.537107559029	68
3	557	97.586864221573	69
3	565	99.148716357256	70
3	585	103.182621254617	71
3	589	103.215242069823	72
3	593	103.256782151114	73
3	601	105.068874839655	74
3	605	105.103319307416	75
3	609	105.13710730665	76
3	627	108.105791639229	77
3	635	110.097072970345	78
3	645	111.87399366771	79
3	649	111.906351039574	80
3	653	111.94541040688	81
3	657	112.00776316179	82
3	665	113.153501315006	83
3	669	113.201065501438	84
3	677	114.42682638855	85
3	681	114.453797039175	86
3	691	117.789930269619	87
3	695	117.821837974229	88
3	703	119.069544338896	89
3	711	120.08610919433	90
3	715	120.138870522019	91
3	735	124.081112460898	92
3	739	124.116339951984	93
3	743	124.153987277926	94
3	747	124.199453740795	95
3	773	132.028440751812	96
3	777	132.071011208425	97
3	799	137.75195938682	98
3	807	139.704198457866	99
3	811	139.731926190863	100
3	815	139.75400952561	101
3	831	144.617864536057	102
3	839	145.854221487792	103
3	847	147.003109466678	104
3	859	149.977845300731	105
3	871	153.154052408682	106
3	879	154.638459042917	107
3	889	156.155785923794	108
3	897	157.684193441062	109
3	905	159.468903587589	110
3	919	161.886022963856	111
3	935	166.550406031576	112
3	939	166.572290261739	113
3	943	166.630506254566	114
3	951	167.719828102652	115
3	965	170.642277246925	116
3	973	172.454502650032	117
3	983	175.452923485168	118
3	987	175.479342547101	119
3	991	175.539802572318	120
3	1001	177.415484081827	121
3	1011	180.524063153514	122
3	1027	183.604756939221	123
3	1035	185.194408713446	124
3	1043	186.593574542288	125
3	1047	186.625522197527	126
3	1051	186.670973601224	127
3	1061	188.140450239272	128
3	1079	192.056751601474	129
3	1093	194.546843133882	130
3	1097	194.597489491163	131
3	1101	194.64867791454	132
3	1105	194.674647402264	133
3	1113	195.928110259233	134
3	1117	195.974389643196	135
3	1121	196.050262724869	136
3	1125	196.091327468474	137
3	1133	197.832815418036	138
3	1155	202.670647281658	139
3	1163	204.374878025798	140
3	1187	208.968692020347	141
3	1197	209.986252232446	142
3	1201	210.020059392918	143
3	1205	210.049738021978	144
3	1213	211.460029535199	145
3	1217	211.517429733606	146
3	1235	216.070701388382	147
3	1239	216.097270322879	148
3	1247	217.855298422625	149
3	1257	219.310981942522	150
3	1261	219.351981483312	151
3	1269	220.948308074543	152
3	1283	223.700369583975	153
3	1291	224.761176733996	154
3	1309	232.289993048336	155
4	12	0.307023831605	0
4	42	8.210075100577	1
4	54	9.380245739227	2
4	62	10.613651605272	3
4	74	12.9129498857	4
4	82	14.850341884109	5
4	114	20.116471400594	6
4	122	21.665398035296	7
4	130	23.419536017234	8
4	146	26.932314855679	9
4	176	32.939774754897	10
4	184	34.512573215771	11
4	192	35.791939052956	12
4	212	38.656084693192	13
4	220	39.767558593032	14
4	232	41.159478506184	15
4	254	44.295978974845	16
4	266	45.366291766774	17
4	276	48.110607089117	18
4	294	51.253733179215	19
4	302	52.793835988447	20
4	310	54.003469452195	21
4	318	55.32302506778	22
4	348	58.146514874775	23
4	378	65.503827598852	24
4	392	68.873377407212	25
4	426	73.755848914147	26
4	436	76.393619721031	27
4	460	79.475541617979	28
4	484	86.395287848661	29
4	498	89.419447945243	30
4	518	90.841623937993	31
4	534	92.773357208109	32
4	558	97.596864221573	33
4	620	106.445498568648	34
4	658	112.01776316179	35
4	682	114.463797039175	36
4	696	117.831837974229	37
4	704	119.079544338896	38
4	716	120.148870522019	39
4	748	124.209453740795	40
4	758	127.081854452967	41
4	816	139.76400952561	42
4	840	145.864221487792	43
4	872	153.164052408682	44
4	906	159.478903587589	45
4	944	166.640506254566	46
4	952	167.729828102652	47
4	966	170.652277246925	48
4	974	172.464502650032	49
4	1002	177.425484081827	50
4	1062	188.150450239272	51
4	1106	194.684647402264	52
4	1126	196.101327468474	53
4	1134	197.842815418036	54
4	1164	204.384878025798	55
4	1172	205.910412471158	56
4	1180	207.373466225146	57
4	1206	210.059738021978	58
4	1218	211.527429733606	59
4	1228	214.50567047723	60
4	1240	216.107270322879	61
4	1262	219.361981483312	62
4	1270	220.958308074543	63
4	1284	223.710369583975	64
4	1292	224.771176733996	65
4	1310	232.299993048336	66
4	1324	235.750140150551	67
4	1334	238.934137738218	68
5	19	3.546626507016	0
5	29	5.11884288337	1
5	119	21.642704175042	2
5	127	23.395670334694	3
5	181	34.491527077151	4
5	189	35.745927983147	5
5	197	37.02715037847	6
5	281	49.946878226349	7
5	287	51.176681299199	8
5	489	87.881894647955	9
5	503	90.685857480615	10
5	617	106.421497342598	11
5	701	119.05370034099	12
5	725	123.072721256076	13
5	755	127.053148116858	14
5	763	128.303679962392	15
5	785	134.11518682781	16
5	791	136.132905216132	17
5	845	146.973943419235	18
5	933	166.529969170634	19
5	963	170.632005041978	20
5	1017	182.096697722466	21
5	1025	183.580065170699	22
5	1139	199.304740231133	23
5	1169	205.879946362449	24
5	1177	207.35272937801	25
5	1195	209.973689392991	26
5	1225	214.485535459615	27
5	1281	223.689912088422	28
5	1321	235.720140286619	29
5	1331	238.909313283042	30
6	45	9.310534260357	0
6	65	11.797090419088	1
6	69	12.88003754772	2
6	85	16.772579542328	3
6	101	18.132021754724	4
6	109	20.077862083866	5
6	133	25.313668734581	6
6	141	26.875346602665	7
6	151	28.862579271623	8
6	161	30.481320267451	9
6	165	31.668757323266	10
6	203	38.567476138878	11
6	215	39.70711127372	12
6	223	41.071571559836	13
6	235	43.026271457924	14
6	241	44.176640207991	15
6	271	48.073761767277	16
6	305	53.891122052019	17
6	313	55.284313966703	18
6	351	59.074501550228	19
6	365	63.524819846618	20
6	373	65.469399929157	21
6	381	66.983721483711	22
6	387	68.804336716739	23
6	395	70.702138533999	24
6	431	76.331089414276	25
6	439	77.859292331934	26
6	465	82.446075057775	27
6	479	86.339905452117	28
6	493	89.368167001773	29
6	521	92.583161538369	30
6	561	99.05236313406	31
6	577	102.045400870433	32
6	581	103.140664734914	33
6	597	105.042193987499	34
6	631	110.047840568157	35
6	641	111.84715964043	36
6	673	114.376729275996	37
6	687	117.753404583422	38
6	707	120.034529055307	39
6	769	131.986908054601	40
6	795	137.684104192668	41
6	803	139.668065070575	42
6	821	143.315535807586	43
6	827	144.577841271404	44
6	835	145.77703560327	45
6	855	149.945282517715	46
6	863	151.593044497887	47
6	867	153.124326498533	48
6	893	157.650447016771	49
6	901	159.428720986341	50
6	909	160.756575833872	51
6	915	161.854732533962	52
6	923	163.130921866945	53
6	955	169.27053814533	54
6	969	172.426000751623	55
6	997	177.377747285717	56
6	1007	180.485230300211	57
6	1039	186.568305734968	58
6	1057	188.081202452525	59
6	1075	192.018687396234	60
6	1085	193.322405621059	61
6	1089	194.518316161231	62
6	1109	195.868792055841	63
6	1129	197.771987937505	64
6	1151	202.618213879825	65
6	1209	211.413694111921	66
6	1231	216.032282830581	67
6	1253	219.284384492694	68
6	1265	220.916821231168	69
6	1273	222.520786945894	70
6	1287	224.70471588927	71
6	1295	226.489481332409	72
6	1305	232.261420913919	73
7	121	21.655398035296	0
7	183	34.502573215771	1
7	199	37.084032437236	2
7	619	106.435498568648	3
7	727	123.084322774349	4
7	757	127.071854452967	5
7	1019	182.106934819609	6
7	1141	199.324530919618	7
7	1171	205.900412471158	8
7	1179	207.363466225146	9
7	1227	214.49567047723	10
7	1323	235.740140150551	11
7	1333	238.924137738218	12

