version 2
run General-3-20230921-23:28:16-9400
attr configname General
attr datetime 20230921-23:28:16
attr experiment General
attr inifile omnetpp.ini
attr iterationvars ""
attr iterationvarsf ""
attr measurement ""
attr network Network3
attr processid 9400
attr repetition 3
attr replication #3
attr resultdir results
attr runnumber 3
attr seedset 3
param Network3.node[*].transmissionTime "uniform(1s, 2s)"
param Network3.node[*].delayTime "uniform(0.01s, 0.2s)"
param Network3.node[*].processingTime exponential(0.01s)
param Network3.node[0].lossProbability 0
param Network3.node[1].lossProbability 0.1
param Network3.node[2].lossProbability 0.1
param Network3.node[3].lossProbability "0.1 / 2"
param Network3.node[4].lossProbability "0.1 / 2"
param Network3.node[6].lossProbability "0.1 * 2"
param Network3.node[7].lossProbability "0.1 * 2"
param Network3.node[5].lossProbability "0.1 * 3"

vector 0 Network3.node[0] txVector ETV
vector 1 Network3.node[1] txVector ETV
vector 2 Network3.node[4] txVector ETV
vector 3 Network3.node[7] txVector ETV
vector 4 Network3.node[2] txVector ETV
vector 5 Network3.node[5] rxVector ETV
vector 6 Network3.node[3] txVector ETV
vector 7 Network3.node[6] txVector ETV
0	1	0.114651601831	0
0	9	1.822799424012	1
0	15	3.030042302632	2
0	35	4.483214602177	3
0	47	5.740799893928	4
0	55	7.154518577573	5
0	67	8.9026760143	6
0	79	10.663254504628	7
0	87	11.979539038218	8
0	89	13.122138384567	9
0	105	14.364813806094	10
0	111	15.464918150171	11
0	123	17.130542757758	12
0	133	18.480467979633	13
0	153	19.672540276614	14
0	165	21.56493346889	15
0	173	22.839713980513	16
0	185	23.922584995231	17
0	221	24.987258188496	18
0	223	26.859437702759	19
0	231	28.787936549238	20
0	249	30.231524228188	21
0	261	31.287165774102	22
0	269	32.766081220074	23
0	281	34.304873882164	24
0	287	35.462118535372	25
0	291	36.493047731765	26
0	293	37.767685201321	27
0	317	39.229233355098	28
0	323	40.374523313553	29
0	345	41.70078731894	30
0	355	43.567741009476	31
0	363	45.134122484899	32
0	365	46.321073480253	33
0	371	48.035960147693	34
0	379	49.467478372227	35
0	393	51.210581941833	36
0	405	52.283499031398	37
0	413	53.934141203366	38
0	419	55.625104907039	39
0	421	57.347547109542	40
0	443	58.557253549179	41
0	445	60.062438017992	42
0	449	61.365257852316	43
0	461	63.111928946642	44
0	463	64.531321895612	45
0	469	65.944940885134	46
0	471	67.137687858963	47
0	477	68.480367124617	48
0	483	69.872839038797	49
0	491	71.093512692327	50
0	497	72.154326350499	51
0	509	73.757626613207	52
0	511	74.770709423186	53
0	519	75.873694335181	54
0	525	76.917690591724	55
0	539	78.28132445768	56
0	547	79.82672802296	57
0	555	80.900411684834	58
0	561	82.454615773935	59
0	567	84.121096502127	60
0	573	86.009816826157	61
0	583	87.705323116457	62
0	589	89.322564273676	63
0	601	91.020292719662	64
0	609	92.401133831659	65
0	617	94.22417904653	66
0	633	96.00842951245	67
0	645	97.574263845639	68
0	665	99.408801029505	69
0	673	101.247306608198	70
0	679	102.973937474958	71
0	681	104.400836068274	72
0	693	106.079075305558	73
0	705	107.197237373398	74
0	721	108.218697125626	75
0	729	109.502937310909	76
0	737	110.646069441059	77
0	741	112.022185570396	78
0	749	113.467186362784	79
0	761	115.445447981659	80
0	773	116.916176595328	81
0	777	118.051368748372	82
0	789	119.704771997243	83
0	797	121.042949396254	84
0	805	122.547592418802	85
0	821	124.520307901151	86
0	823	125.810508217033	87
0	843	127.547918538632	88
0	849	129.15385229939	89
0	857	130.928299483446	90
0	863	132.257429139757	91
0	875	133.36450975139	92
0	885	134.910467715769	93
0	893	136.559733307523	94
0	901	137.637358720483	95
0	903	139.382109345238	96
0	909	140.919988088611	97
0	915	142.832692568957	98
0	927	144.21170865821	99
0	929	145.548965309582	100
0	937	147.239233516923	101
0	941	148.662445582284	102
0	949	150.487341513925	103
0	957	151.805690104442	104
0	963	153.459235854514	105
0	965	154.688150200129	106
0	975	155.766289489178	107
0	989	156.929296181371	108
0	1005	158.445695326265	109
0	1009	159.983418842612	110
0	1021	161.716432537485	111
0	1035	162.824731318114	112
0	1047	163.881878946276	113
0	1053	165.467253033604	114
0	1057	166.80268675049	115
0	1063	168.126253038712	116
0	1069	169.713350006446	117
0	1077	171.68170663139	118
0	1085	173.050660110378	119
0	1113	175.02027648368	120
0	1129	176.875250686492	121
0	1137	177.983424991668	122
0	1139	179.786662159321	123
0	1147	180.813093565238	124
0	1149	182.738428725229	125
0	1157	184.124605449682	126
0	1167	185.953414175028	127
0	1179	187.408931815598	128
0	1187	189.013301747219	129
0	1195	190.705910058759	130
0	1203	192.115573229102	131
0	1211	193.327428798258	132
0	1221	194.402892697669	133
0	1229	195.587940076433	134
0	1243	197.537076107759	135
0	1249	198.695806832818	136
0	1255	200.318563880466	137
0	1263	201.59261830507	138
0	1275	203.540412665179	139
0	1283	205.013358754639	140
0	1291	206.403322999899	141
0	1299	207.985638329594	142
0	1307	209.92354042439	143
0	1315	211.074725347406	144
0	1323	212.440227485562	145
0	1327	213.638086361179	146
0	1333	215.214514903325	147
0	1341	216.495700527282	148
0	1351	217.875598873311	149
0	1357	219.203822245189	150
0	1369	220.53641778377	151
0	1377	222.178725955376	152
0	1393	223.786472714107	153
0	1395	225.393799616323	154
0	1407	227.289127418605	155
0	1427	228.424105832653	156
0	1439	229.979653348282	157
0	1447	231.330195463562	158
0	1455	232.842706744393	159
0	1467	234.751393698223	160
0	1469	235.951107489711	161
0	1489	237.299250949707	162
0	1497	238.971023393862	163
1	3	0.128089255914	0
1	49	5.766271029546	1
1	57	7.173925017985	2
1	81	10.691819858911	3
1	107	14.376198313544	4
1	113	15.47891653024	5
1	125	17.155359305254	6
1	167	21.585495410573	7
1	225	26.873948756547	8
1	233	28.808238844678	9
1	251	30.255100802501	10
1	263	31.297808807365	11
1	289	35.474759472025	12
1	319	39.251340648397	13
1	347	41.722057331295	14
1	367	46.336424985494	15
1	373	48.070538562732	16
1	381	49.482895049577	17
1	415	53.945078762198	18
1	423	57.359988703858	19
1	465	64.565911915002	20
1	473	67.14774861357	21
1	479	68.558847276642	22
1	485	69.901884714919	23
1	493	71.105365170341	24
1	513	74.786887854205	25
1	569	84.132779504556	26
1	591	89.366306786642	27
1	603	91.043942149395	28
1	619	94.250481378182	29
1	635	96.02233165909	30
1	667	99.419918650653	31
1	675	101.28043443221	32
1	683	104.433866522757	33
1	723	108.234407873316	34
1	739	110.672726170439	35
1	751	113.478165221125	36
1	791	119.717087138897	37
1	825	125.837572238513	38
1	845	127.559580394407	39
1	851	129.182914853881	40
1	859	130.939640991108	41
1	877	133.379163693947	42
1	887	134.927573930951	43
1	895	136.585585611932	44
1	911	140.933382129038	45
1	931	145.562656222218	46
1	943	148.672632714192	47
1	951	150.533989785889	48
1	959	151.81785990223	49
1	977	155.798949939917	50
1	1011	160.023428643169	51
1	1065	168.140679191284	52
1	1071	169.724177849337	53
1	1079	171.695209657043	54
1	1087	173.125998620341	55
1	1131	176.899801409577	56
1	1151	182.788482162823	57
1	1169	185.965640517617	58
1	1181	187.430462608973	59
1	1189	189.035188754151	60
1	1213	193.337654726292	61
1	1245	197.556726239448	62
1	1251	198.742586102807	63
1	1257	200.33055351851	64
1	1277	203.550751854577	65
1	1301	207.998215426693	66
1	1309	209.935954007815	67
1	1325	212.46620814079	68
1	1335	215.228600940516	69
1	1359	219.215921944433	70
1	1371	220.565139444403	71
1	1379	222.211179690432	72
1	1409	227.299711741549	73
1	1457	232.862576516958	74
1	1471	235.97766267624	75
1	1499	238.994727305937	76
2	5	0.146512953746	0
2	13	1.855196468151	1
2	19	3.063748359541	2
2	23	3.116385336912	3
2	27	3.144867135235	4
2	31	3.1754073291	5
2	39	4.553118801308	6
2	43	4.597972031864	7
2	63	7.224245145517	8
2	71	8.924247659784	9
2	75	8.962451057236	10
2	93	13.177967507199	11
2	97	13.215522941376	12
2	101	13.270603645722	13
2	119	15.545003187374	14
2	127	17.189890508993	15
2	131	17.22127147696	16
2	137	18.545183435521	17
2	141	18.59055672364	18
2	145	18.620812116461	19
2	149	18.654446620465	20
2	157	19.808915323045	21
2	161	19.832657384586	22
2	177	22.909221362836	23
2	181	22.932800893998	24
2	189	23.979529426017	25
2	193	24.004926702321	26
2	197	24.03891200133	27
2	201	24.070900072008	28
2	205	24.118738027121	29
2	209	24.164546568238	30
2	213	24.20396251908	31
2	217	24.260924973567	32
2	235	28.836373506358	33
2	239	28.863793371559	34
2	243	28.893775904733	35
2	247	28.944871908655	36
2	257	30.309329961369	37
2	273	32.836376799717	38
2	277	32.901933210488	39
2	285	34.337050004565	40
2	297	37.792665693128	41
2	301	37.834396308451	42
2	305	37.868489446829	43
2	309	37.913343679761	44
2	313	37.960368491379	45
2	327	40.406123066739	46
2	331	40.445758610121	47
2	335	40.484054187879	48
2	339	40.528929722551	49
2	343	40.570624877861	50
2	349	41.744623301822	51
2	353	41.774952182865	52
2	359	43.590503975501	53
2	369	46.361986054625	54
2	375	48.103635754843	55
2	383	49.512744008639	56
2	387	49.534548629864	57
2	391	49.571157312945	58
2	397	51.240417929493	59
2	401	51.285150985746	60
2	409	52.316705360293	61
2	417	53.989109818817	62
2	425	57.374511528705	63
2	429	57.443122956481	64
2	433	57.479249990218	65
2	437	57.51578127786	66
2	441	57.550562093791	67
2	453	61.397912091698	68
2	457	61.453682284487	69
2	487	69.921542867418	70
2	495	71.126163479707	71
2	501	72.189552264749	72
2	505	72.230546255319	73
2	523	75.901942933362	74
2	529	76.958850626174	75
2	533	76.988386516358	76
2	537	77.022528654146	77
2	543	78.337406714847	78
2	551	79.863992522782	79
2	559	80.935124888862	80
2	565	82.532367576802	81
2	571	84.143409414477	82
2	577	86.043008259437	83
2	581	86.071918765356	84
2	587	87.742989868434	85
2	597	89.411054538753	86
2	613	92.427125787589	87
2	621	94.288326116815	88
2	625	94.324387668557	89
2	629	94.363594597008	90
2	641	96.091000746217	91
2	649	97.601250351518	92
2	653	97.641577191474	93
2	657	97.703513092737	94
2	661	97.746711837397	95
2	677	101.303880580488	96
2	685	104.463611284718	97
2	689	104.497832888252	98
2	697	106.141203209663	99
2	701	106.188818761648	100
2	709	107.261294480614	101
2	713	107.287549709701	102
2	717	107.333248387964	103
2	733	109.560192245949	104
2	745	112.056153877803	105
2	757	113.53482807131	106
2	765	115.468468874224	107
2	769	115.514158841727	108
2	781	118.078382536548	109
2	785	118.112896496683	110
2	793	119.733072240101	111
2	801	121.082794982944	112
2	809	122.586114435925	113
2	813	122.61650286287	114
2	817	122.656577326324	115
2	827	125.855049929506	116
2	831	125.894033021231	117
2	835	125.926527740289	118
2	839	125.959606177826	119
2	847	127.580648215227	120
2	867	132.288340763398	121
2	871	132.321489700345	122
2	879	133.391199134491	123
2	883	133.454896829666	124
2	907	139.440394324128	125
2	913	140.943475270507	126
2	919	142.875489287763	127
2	923	142.902673510987	128
2	969	154.726065143709	129
2	973	154.750090840793	130
2	979	155.847242062367	131
2	983	155.91553245563	132
2	987	155.947879979117	133
2	993	156.956878768699	134
2	997	156.982658856663	135
2	1001	157.014873771207	136
2	1013	160.04161667634	137
2	1017	160.100400619978	138
2	1025	161.746163347459	139
2	1029	161.779136984897	140
2	1033	161.81273900557	141
2	1039	162.866327250762	142
2	1043	162.921018362282	143
2	1051	163.922875244318	144
2	1061	166.848848841875	145
2	1067	168.154288114511	146
2	1093	173.194502927476	147
2	1097	173.239382091973	148
2	1101	173.276534285217	149
2	1105	173.308652828729	150
2	1109	173.367512770278	151
2	1117	175.117547490704	152
2	1121	175.151332959583	153
2	1125	175.194752679268	154
2	1133	176.918957632522	155
2	1143	179.822565964795	156
2	1153	182.801532212364	157
2	1161	184.157689070892	158
2	1165	184.199847719241	159
2	1171	185.977692146406	160
2	1175	186.047076521869	161
2	1183	187.463547996901	162
2	1199	190.760465894163	163
2	1207	192.188855019164	164
2	1215	193.370336988721	165
2	1219	193.417733955105	166
2	1225	194.455835901535	167
2	1233	195.614712106044	168
2	1237	195.658802401232	169
2	1241	195.710690514154	170
2	1247	197.569152147865	171
2	1259	200.343586532248	172
2	1267	201.628565593364	173
2	1271	201.665109063834	174
2	1279	203.569126936624	175
2	1287	205.087063041939	176
2	1295	206.427368769337	177
2	1303	208.055519289397	178
2	1319	211.113975472536	179
2	1331	213.661356839561	180
2	1345	216.591500665973	181
2	1349	216.623799035728	182
2	1355	217.905872713596	183
2	1365	219.278736959032	184
2	1381	222.224602369233	185
2	1385	222.251448516373	186
2	1389	222.282702977538	187
2	1399	225.433577793704	188
2	1403	225.468616824812	189
2	1411	227.311036268876	190
2	1415	227.3623260021	191
2	1419	227.40313510917	192
2	1423	227.436518049292	193
2	1431	228.457545339188	194
2	1435	228.505123922436	195
2	1443	230.031896663162	196
2	1451	231.37545017917	197
2	1463	232.909642560242	198
2	1477	236.037536620104	199
2	1481	236.065238965165	200
2	1485	236.105656407179	201
2	1493	237.341640966473	202
2	1505	239.049510817079	203
2	1509	239.092651319927	204
3	7	0.179174819169	0
3	21	3.098201541056	1
3	25	3.13153301479	2
3	29	3.16370101468	3
3	33	3.199581681359	4
3	41	4.564658677084	5
3	45	4.613063484829	6
3	53	5.794552951325	7
3	61	7.210911544625	8
3	65	7.238931187257	9
3	73	8.940151768768	10
3	77	8.978563636106	11
3	95	13.198479362355	12
3	99	13.234602789034	13
3	103	13.282822289735	14
3	117	15.51672767973	15
3	121	15.576298815458	16
3	129	17.203222986609	17
3	139	18.574219607459	18
3	143	18.607268100393	19
3	147	18.637449829992	20
3	151	18.666397204352	21
3	159	19.819418880649	22
3	163	19.853187736405	23
3	179	22.921085062727	24
3	183	22.965393308425	25
3	191	23.991249578445	26
3	195	24.027915109119	27
3	199	24.050414035948	28
3	203	24.101873034757	29
3	207	24.144780755654	30
3	211	24.176839942292	31
3	215	24.247551989992	32
3	219	24.27430841014	33
3	237	28.851168857395	34
3	241	28.879573763433	35
3	245	28.916510964155	36
3	255	30.292067351932	37
3	259	30.336990941589	38
3	267	31.340066161514	39
3	275	32.853264026199	40
3	279	32.916598291995	41
3	299	37.811297064678	42
3	303	37.844870329889	43
3	307	37.887577714423	44
3	311	37.940205919787	45
3	315	37.997852867293	46
3	329	40.432267382034	47
3	333	40.467479352546	48
3	337	40.512661874268	49
3	341	40.542997126335	50
3	351	41.760791989656	51
3	361	43.617833235025	52
3	377	48.116272597194	53
3	385	49.523327719232	54
3	389	49.553525134364	55
3	399	51.26606516524	56
3	403	51.305126322029	57
3	411	52.332720372288	58
3	427	57.401882035877	59
3	431	57.458149229531	60
3	435	57.499027000621	61
3	439	57.540463036547	62
3	455	61.435947269741	63
3	459	61.464203431135	64
3	489	69.934120274807	65
3	503	72.203005828361	66
3	507	72.242200466225	67
3	517	74.867206368376	68
3	531	76.971203433695	69
3	535	77.009575471776	70
3	545	78.361700482966	71
3	553	79.875935696248	72
3	579	86.057465118148	73
3	595	89.395100619292	74
3	599	89.434294459038	75
3	607	91.073356981852	76
3	615	92.456746470961	77
3	623	94.313798214083	78
3	627	94.339163531672	79
3	631	94.392062439555	80
3	639	96.067730234465	81
3	643	96.105179843793	82
3	651	97.611402510996	83
3	655	97.674881817863	84
3	659	97.73377530332	85
3	663	97.767190418471	86
3	687	104.485820934601	87
3	691	104.508521781179	88
3	699	106.165583399699	89
3	703	106.200431679783	90
3	711	107.274798370555	91
3	715	107.322063228923	92
3	719	107.387076715399	93
3	727	108.268888837208	94
3	735	109.5715552983	95
3	747	112.072351325641	96
3	755	113.508237750183	97
3	759	113.547645484366	98
3	767	115.49431582124	99
3	771	115.540414744178	100
3	783	118.093593021618	101
3	787	118.129903665544	102
3	795	119.752664116513	103
3	803	121.095911550534	104
3	811	122.600371038621	105
3	815	122.62855387264	106
3	819	122.683881265474	107
3	829	125.872165367918	108
3	833	125.905003937601	109
3	837	125.938187230664	110
3	841	125.999492862682	111
3	869	132.307481498478	112
3	873	132.34675922914	113
3	881	133.402424185905	114
3	891	134.967895858138	115
3	921	142.88922429962	116
3	925	142.918144155653	117
3	947	148.706472118639	118
3	971	154.738560280606	119
3	981	155.89294102286	120
3	985	155.932537259306	121
3	995	156.970500407078	122
3	999	157.003276363459	123
3	1003	157.026630719048	124
3	1015	160.077357112755	125
3	1019	160.120132946949	126
3	1027	161.756552708946	127
3	1031	161.799916044772	128
3	1041	162.893844483639	129
3	1045	162.940598536717	130
3	1091	173.178219008628	131
3	1095	173.223202517141	132
3	1099	173.263526596462	133
3	1103	173.289633985981	134
3	1107	173.334560984867	135
3	1111	173.379416885416	136
3	1119	175.131031878878	137
3	1123	175.168535356896	138
3	1127	175.212982722262	139
3	1135	176.93463021138	140
3	1145	179.832676621489	141
3	1155	182.815713113094	142
3	1163	184.177473694102	143
3	1173	185.989472425179	144
3	1177	186.062513688432	145
3	1185	187.479261889279	146
3	1193	189.07328593884	147
3	1201	190.77088623277	148
3	1209	192.219194161801	149
3	1217	193.403769356716	150
3	1227	194.484484937824	151
3	1235	195.636185462623	152
3	1239	195.6747184349	153
3	1261	200.356013577035	154
3	1269	201.652428811216	155
3	1273	201.69470268258	156
3	1281	203.579351344188	157
3	1289	205.104519132616	158
3	1297	206.445812197429	159
3	1305	208.067451280187	160
3	1313	209.997989277108	161
3	1321	211.126629519999	162
3	1339	215.269932330039	163
3	1347	216.606849486799	164
3	1363	219.255991369336	165
3	1367	219.320710575074	166
3	1383	222.238288544737	167
3	1387	222.272141445617	168
3	1391	222.302716071754	169
3	1401	225.447147173678	170
3	1405	225.4952383072	171
3	1413	227.329531227173	172
3	1417	227.382490754386	173
3	1421	227.414906929324	174
3	1425	227.450122086696	175
3	1433	228.482784769886	176
3	1437	228.530928474851	177
3	1445	230.060386503006	178
3	1453	231.396818222456	179
3	1461	232.895039692838	180
3	1465	232.926306837973	181
3	1475	236.023964288305	182
3	1479	236.054256205693	183
3	1483	236.075770872776	184
3	1487	236.117990952757	185
3	1495	237.365636476989	186
3	1503	239.038820715596	187
3	1507	239.077578948477	188
3	1511	239.115295243517	189
4	11	1.833327813189	0
4	17	3.042470371423	1
4	37	4.51556995318	2
4	69	8.913334953244	3
4	91	13.167752964744	4
4	135	18.503402201123	5
4	155	19.692761696491	6
4	175	22.88182980302	7
4	187	23.952544802276	8
4	271	32.776866960646	9
4	283	34.318096734302	10
4	295	37.77945878854	11
4	325	40.393292333416	12
4	357	43.578015049042	13
4	395	51.229973120885	14
4	407	52.301333677809	15
4	447	60.085940087044	16
4	451	61.383777435894	17
4	499	72.173991153296	18
4	521	75.885390356282	19
4	527	76.934435940381	20
4	541	78.322900187385	21
4	549	79.844255637625	22
4	557	80.921681910222	23
4	563	82.496614878631	24
4	575	86.029110854983	25
4	585	87.72321783512	26
4	611	92.41610482559	27
4	647	97.58619363448	28
4	695	106.092509261061	29
4	707	107.214003497716	30
4	731	109.545036116566	31
4	743	112.03504829142	32
4	763	115.456992234875	33
4	775	116.92927166705	34
4	779	118.062262662087	35
4	799	121.053404365965	36
4	807	122.573254347287	37
4	865	132.276574522617	38
4	905	139.424529703466	39
4	917	142.848662520706	40
4	939	147.276173570653	41
4	967	154.712890617992	42
4	991	156.946379005587	43
4	1007	158.469255109088	44
4	1023	161.73463468497	45
4	1037	162.837039048523	46
4	1049	163.896029541412	47
4	1055	165.478341206362	48
4	1059	166.824705816646	49
4	1115	175.050775867141	50
4	1141	179.811130677541	51
4	1159	184.145352995171	52
4	1197	190.724684015804	53
4	1205	192.126117936401	54
4	1223	194.423908232715	55
4	1231	195.603301793097	56
4	1265	201.613820002187	57
4	1285	205.055133183042	58
4	1293	206.416226856766	59
4	1317	211.086827358318	60
4	1329	213.650998853807	61
4	1343	216.533505935141	62
4	1353	217.892945046922	63
4	1397	225.419098449382	64
4	1429	228.446937046892	65
4	1441	230.008447122999	66
4	1449	231.362136606923	67
4	1491	237.322017588757	68
5	34	3.209581681359	0
5	46	4.623063484829	1
5	54	5.804552951325	2
5	78	8.988563636106	3
5	86	10.743467083763	4
5	122	15.586298815458	5
5	164	19.863187736405	6
5	184	22.975393308425	7
5	220	24.28430841014	8
5	280	32.926598291995	9
5	378	48.126272597194	10
5	404	51.315126322029	11
5	412	52.342720372288	12
5	460	61.474203431135	13
5	490	69.944120274807	14
5	508	72.252200466225	15
5	518	74.877206368376	16
5	546	78.371700482966	17
5	554	79.885935696248	18
5	600	89.444294459038	19
5	632	94.402062439555	20
5	644	96.115179843793	21
5	672	99.465679289789	22
5	704	106.210431679783	23
5	720	107.397076715399	24
5	728	108.278888837208	25
5	736	109.5815552983	26
5	748	112.082351325641	27
5	760	113.557645484366	28
5	772	115.550414744178	29
5	796	119.762664116513	30
5	820	122.693881265474	31
5	842	126.009492862682	32
5	892	134.977895858138	33
5	936	145.603933411122	34
5	948	148.716472118639	35
5	956	150.589679342944	36
5	1004	157.036630719048	37
5	1020	160.130132946949	38
5	1046	162.950598536717	39
5	1076	169.769141811626	40
5	1112	173.389416885416	41
5	1146	179.842676621489	42
5	1156	182.825713113094	43
5	1178	186.072513688432	44
5	1194	189.08328593884	45
5	1202	190.78088623277	46
5	1262	200.366013577035	47
5	1274	201.70470268258	48
5	1298	206.455812197429	49
5	1306	208.077451280187	50
5	1314	210.007989277108	51
5	1322	211.136629519999	52
5	1340	215.279932330039	53
5	1368	219.330710575074	54
5	1376	220.629493976998	55
5	1392	222.312716071754	56
5	1406	225.5052383072	57
5	1438	228.540928474851	58
5	1488	236.127990952757	59
5	1496	237.375636476989	60
5	1512	239.125295243517	61
6	51	5.780758379934	0
6	59	7.190044126422	1
6	83	10.705972720642	2
6	109	14.387433746125	3
6	115	15.501198522755	4
6	169	21.599891770328	5
6	227	26.902807517293	6
6	253	30.280368214282	7
6	265	31.329356034674	8
6	321	39.261594085788	9
6	467	64.576336978704	10
6	475	67.163994848007	11
6	481	68.590809086849	12
6	515	74.835240857908	13
6	593	89.384952378084	14
6	605	91.056449377114	15
6	637	96.056355883567	16
6	669	99.437722909216	17
6	725	108.247552915553	18
6	753	113.488207858256	19
6	853	129.205122900726	20
6	861	130.957235481693	21
6	889	134.941400642896	22
6	897	136.60531812514	23
6	933	145.583427162917	24
6	945	148.689351181922	25
6	953	150.547700732329	26
6	961	151.830884528094	27
6	1073	169.736480899659	28
6	1081	171.713639059251	29
6	1089	173.146781466185	30
6	1191	189.060306491708	31
6	1253	198.792139433199	32
6	1311	209.952582409966	33
6	1337	215.249277633146	34
6	1361	219.239287047286	35
6	1373	220.604883851666	36
6	1459	232.873996841812	37
6	1473	235.989453274203	38
6	1501	239.01722635781	39
7	85	10.733467083763	0
7	171	21.610618902174	1
7	229	26.922032882532	2
7	671	99.455679289789	3
7	855	129.217847292826	4
7	899	136.623575664826	5
7	935	145.593933411122	6
7	955	150.579679342944	7
7	1075	169.759141811626	8
7	1083	171.730629171207	9
7	1375	220.619493976998	10

