version 2
run General-0-20231008-07:03:17-16741
attr configname General
attr datetime 20231008-07:03:17
attr experiment General
attr inifile omnetpp.ini
attr iterationvars ""
attr iterationvarsf ""
attr measurement ""
attr network Network2
attr processid 16741
attr repetition 0
attr replication #0
attr resultdir results
attr runnumber 0
attr seedset 0
param Network2.node[*].transmissionTime "uniform(1s, 2s)"
param Network2.node[*].delayTime "uniform(0.01s, 0.2s)"
param Network2.node[*].processingTime exponential(0.01s)
param Network2.node[*].lossProbability 0.5

vector 0 Network2.node[0] txVector ETV
vector 1 Network2.node[1] txVector ETV
vector 2 Network2.node[3] txVector ETV
vector 3 Network2.node[2] txVector ETV
vector 4 Network2.node[6] txVector ETV
vector 5 Network2.node[4] txVector ETV
vector 6 Network2.node[5] rxVector ETV
0	1	0.114274565438	0
0	24	1.707119181827	1
0	26	3.275163745582	2
0	45	5.20076037881	3
0	64	6.721237859298	4
0	66	8.177388195256	5
0	68	9.745822143583	6
0	70	10.764611941604	7
0	72	12.382247442454	8
0	74	13.994343164917	9
0	76	15.611277163569	10
0	99	17.555025238851	11
0	122	18.880072466405	12
0	145	19.990447605569	13
0	152	21.046162298489	14
0	159	22.328969257958	15
0	161	24.017630444215	16
0	163	25.898106337366	17
0	165	27.816341810235	18
0	188	29.033163943402	19
0	190	30.322570034377	20
0	192	31.505761397844	21
0	215	33.092274330864	22
0	217	34.731195411021	23
0	240	36.622749841847	24
0	263	38.348004123271	25
0	265	40.2264563144	26
0	267	41.329319674364	27
0	282	42.421693560975	28
0	284	43.789255432627	29
0	304	45.225120351958	30
0	323	46.387613283313	31
0	346	47.807688650984	32
0	348	48.826210445102	33
0	350	50.619908147568	34
0	373	51.843832830276	35
0	393	53.708114272758	36
0	395	55.388658966945	37
0	397	56.473954534001	38
0	399	57.530372868601	39
0	401	59.018210574595	40
0	424	60.899215133238	41
0	447	62.562293336803	42
0	449	64.447631001083	43
0	472	66.127510455979	44
0	487	67.501680434525	45
0	498	68.676589306753	46
0	500	70.164645591361	47
0	523	71.520258326392	48
0	525	72.583296618966	49
0	548	74.138945856208	50
0	571	75.370647481719	51
0	594	77.151074130863	52
0	617	79.013265644975	53
0	619	80.027214043152	54
0	634	81.560679719394	55
0	649	83.118048505934	56
0	651	84.576563059662	57
0	671	86.101155675559	58
0	673	87.782514809009	59
0	675	88.960882162519	60
0	695	90.030741179904	61
0	710	91.519151241595	62
0	717	93.200543753646	63
0	740	94.347557644901	64
0	756	96.047179700882	65
0	775	97.505318525788	66
0	798	98.599776441539	67
0	813	99.785008766065	68
0	815	100.871541255927	69
0	834	102.108714546385	70
0	836	103.120750769582	71
0	856	104.236235062434	72
0	876	106.019469500827	73
0	887	107.726044208352	74
0	889	109.464726866531	75
0	891	110.913810293498	76
0	909	112.851094657397	77
0	911	114.742617339902	78
0	926	116.100724815	79
0	949	117.849513067473	80
0	972	119.198295726748	81
0	995	120.581103785271	82
0	997	121.606601138907	83
0	1020	123.494644844747	84
0	1043	124.599272730137	85
0	1045	126.455575708142	86
0	1052	128.090632503229	87
0	1063	129.621169717825	88
0	1086	131.527341558673	89
0	1109	133.116081168484	90
0	1111	134.922750497544	91
0	1113	136.383757326128	92
0	1115	138.21058154393	93
0	1138	139.749699775437	94
0	1140	141.717986190068	95
0	1142	143.637769001145	96
0	1144	144.673802823369	97
0	1146	145.84857483076	98
0	1148	147.237709509982	99
0	1171	149.189852208905	100
0	1173	151.068344838759	101
0	1175	152.502500418183	102
0	1177	154.020112520392	103
0	1196	155.494780504919	104
0	1198	156.873025681666	105
0	1213	158.852552607731	106
0	1215	160.485614617198	107
0	1235	162.376267427421	108
0	1237	163.779034184367	109
0	1260	164.816599232685	110
0	1262	165.879235239076	111
0	1264	167.12113694435	112
0	1266	168.553418427315	113
0	1289	170.075414697016	114
0	1291	171.286948600626	115
0	1307	173.051943044952	116
0	1314	175.036876350251	117
0	1316	176.152710353565	118
0	1326	177.609769111574	119
0	1328	178.881021188414	120
0	1330	180.284813932218	121
0	1332	181.684626074117	122
0	1334	183.356009557685	123
0	1354	184.700727679841	124
0	1356	186.237650681594	125
0	1363	187.348127792198	126
0	1365	189.062054992728	127
0	1384	190.623632274177	128
0	1407	192.158549128873	129
0	1409	193.433124178862	130
0	1411	194.44181409765	131
0	1413	195.466758827055	132
0	1415	196.611044925712	133
0	1417	198.12480466052	134
0	1440	199.34746259342	135
0	1442	201.098484241711	136
0	1444	203.025696052779	137
0	1446	204.05464860525	138
0	1448	205.950339899007	139
0	1471	207.342908681212	140
0	1473	208.856963155167	141
0	1480	209.95445654083	142
0	1503	211.001262894673	143
0	1519	212.416542838635	144
0	1542	213.991755305631	145
0	1556	215.236644784994	146
0	1571	217.014816379249	147
0	1573	218.796905754907	148
0	1575	220.043950972222	149
0	1577	221.080511960974	150
0	1579	222.48743389531	151
0	1599	224.365184681797	152
0	1601	225.389937760615	153
0	1620	226.397406077552	154
0	1630	227.754830725099	155
0	1632	228.967265085158	156
0	1648	230.15029837897	157
0	1650	231.358551635015	158
0	1652	233.290945577043	159
0	1675	234.506343783186	160
0	1677	236.023481060126	161
0	1700	237.778587238937	162
0	1710	239.667647186275	163
1	3	0.142870607559	0
1	3	0.142870607559	1
1	3	0.142870607559	2
1	3	0.142870607559	3
1	28	3.285900599137	4
1	28	3.285900599137	5
1	28	3.285900599137	6
1	28	3.285900599137	7
1	47	5.222119768227	8
1	47	5.222119768227	9
1	47	5.222119768227	10
1	47	5.222119768227	11
1	78	15.632728553116	12
1	78	15.632728553116	13
1	78	15.632728553116	14
1	78	15.632728553116	15
1	101	17.565417070415	16
1	101	17.565417070415	17
1	101	17.565417070415	18
1	101	17.565417070415	19
1	124	18.900753188376	20
1	124	18.900753188376	21
1	124	18.900753188376	22
1	124	18.900753188376	23
1	147	20.006447074435	24
1	147	20.006447074435	25
1	147	20.006447074435	26
1	147	20.006447074435	27
1	154	21.057442866142	28
1	154	21.057442866142	29
1	154	21.057442866142	30
1	154	21.057442866142	31
1	167	27.834670245396	32
1	167	27.834670245396	33
1	167	27.834670245396	34
1	167	27.834670245396	35
1	194	31.515964522432	36
1	194	31.515964522432	37
1	194	31.515964522432	38
1	194	31.515964522432	39
1	219	34.752591490656	40
1	219	34.752591490656	41
1	219	34.752591490656	42
1	219	34.752591490656	43
1	242	36.639707836456	44
1	242	36.639707836456	45
1	242	36.639707836456	46
1	242	36.639707836456	47
1	269	41.343689954502	48
1	269	41.343689954502	49
1	269	41.343689954502	50
1	269	41.343689954502	51
1	286	43.821504579199	52
1	286	43.821504579199	53
1	286	43.821504579199	54
1	286	43.821504579199	55
1	306	45.244680016197	56
1	306	45.244680016197	57
1	306	45.244680016197	58
1	306	45.244680016197	59
1	325	46.398132408835	60
1	325	46.398132408835	61
1	325	46.398132408835	62
1	325	46.398132408835	63
1	352	50.634144718582	64
1	352	50.634144718582	65
1	352	50.634144718582	66
1	352	50.634144718582	67
1	375	51.867729600914	68
1	375	51.867729600914	69
1	375	51.867729600914	70
1	375	51.867729600914	71
1	403	59.065677520733	72
1	403	59.065677520733	73
1	403	59.065677520733	74
1	403	59.065677520733	75
1	426	60.912271182256	76
1	426	60.912271182256	77
1	426	60.912271182256	78
1	426	60.912271182256	79
1	451	64.46372144721	80
1	451	64.46372144721	81
1	451	64.46372144721	82
1	451	64.46372144721	83
1	474	66.143738749077	84
1	474	66.143738749077	85
1	474	66.143738749077	86
1	474	66.143738749077	87
1	489	67.523870427977	88
1	489	67.523870427977	89
1	489	67.523870427977	90
1	489	67.523870427977	91
1	502	70.202851950845	92
1	502	70.202851950845	93
1	502	70.202851950845	94
1	502	70.202851950845	95
1	527	72.59338944921	96
1	527	72.59338944921	97
1	527	72.59338944921	98
1	527	72.59338944921	99
1	550	74.178767862963	100
1	550	74.178767862963	101
1	550	74.178767862963	102
1	550	74.178767862963	103
1	573	75.422666075981	104
1	573	75.422666075981	105
1	573	75.422666075981	106
1	573	75.422666075981	107
1	596	77.197163540913	108
1	596	77.197163540913	109
1	596	77.197163540913	110
1	596	77.197163540913	111
1	621	80.040846465341	112
1	621	80.040846465341	113
1	621	80.040846465341	114
1	621	80.040846465341	115
1	636	81.59038029505	116
1	636	81.59038029505	117
1	636	81.59038029505	118
1	636	81.59038029505	119
1	653	84.592397297372	120
1	653	84.592397297372	121
1	653	84.592397297372	122
1	653	84.592397297372	123
1	677	88.970979516612	124
1	677	88.970979516612	125
1	677	88.970979516612	126
1	677	88.970979516612	127
1	697	90.046095223415	128
1	697	90.046095223415	129
1	697	90.046095223415	130
1	697	90.046095223415	131
1	712	91.5324029503	132
1	712	91.5324029503	133
1	712	91.5324029503	134
1	712	91.5324029503	135
1	719	93.212285740812	136
1	719	93.212285740812	137
1	719	93.212285740812	138
1	719	93.212285740812	139
1	742	94.361528454401	140
1	742	94.361528454401	141
1	742	94.361528454401	142
1	742	94.361528454401	143
1	758	96.066119714909	144
1	758	96.066119714909	145
1	758	96.066119714909	146
1	758	96.066119714909	147
1	777	97.525359037527	148
1	777	97.525359037527	149
1	777	97.525359037527	150
1	777	97.525359037527	151
1	800	98.614905711457	152
1	800	98.614905711457	153
1	800	98.614905711457	154
1	800	98.614905711457	155
1	817	100.899836677486	156
1	817	100.899836677486	157
1	817	100.899836677486	158
1	817	100.899836677486	159
1	838	103.140386696545	160
1	838	103.140386696545	161
1	838	103.140386696545	162
1	838	103.140386696545	163
1	858	104.24963743463	164
1	858	104.24963743463	165
1	858	104.24963743463	166
1	858	104.24963743463	167
1	878	106.03482848878	168
1	878	106.03482848878	169
1	878	106.03482848878	170
1	878	106.03482848878	171
1	893	110.926784028777	172
1	893	110.926784028777	173
1	893	110.926784028777	174
1	893	110.926784028777	175
1	913	114.7574825313	176
1	913	114.7574825313	177
1	913	114.7574825313	178
1	913	114.7574825313	179
1	928	116.113440372917	180
1	928	116.113440372917	181
1	928	116.113440372917	182
1	928	116.113440372917	183
1	951	117.85976234843	184
1	951	117.85976234843	185
1	951	117.85976234843	186
1	951	117.85976234843	187
1	974	119.230870494656	188
1	974	119.230870494656	189
1	974	119.230870494656	190
1	974	119.230870494656	191
1	999	121.628932026179	192
1	999	121.628932026179	193
1	999	121.628932026179	194
1	999	121.628932026179	195
1	1022	123.508929255035	196
1	1022	123.508929255035	197
1	1022	123.508929255035	198
1	1022	123.508929255035	199
1	1047	126.469137365958	200
1	1047	126.469137365958	201
1	1047	126.469137365958	202
1	1047	126.469137365958	203
1	1054	128.126157268164	204
1	1054	128.126157268164	205
1	1054	128.126157268164	206
1	1054	128.126157268164	207
1	1065	129.631255198011	208
1	1065	129.631255198011	209
1	1065	129.631255198011	210
1	1065	129.631255198011	211
1	1088	131.570248046976	212
1	1088	131.570248046976	213
1	1088	131.570248046976	214
1	1088	131.570248046976	215
1	1117	138.242408682823	216
1	1117	138.242408682823	217
1	1117	138.242408682823	218
1	1117	138.242408682823	219
1	1150	147.251276672509	220
1	1150	147.251276672509	221
1	1150	147.251276672509	222
1	1150	147.251276672509	223
1	1179	154.032150374214	224
1	1179	154.032150374214	225
1	1179	154.032150374214	226
1	1179	154.032150374214	227
1	1200	156.884945260686	228
1	1200	156.884945260686	229
1	1200	156.884945260686	230
1	1200	156.884945260686	231
1	1217	160.501281636796	232
1	1217	160.501281636796	233
1	1217	160.501281636796	234
1	1217	160.501281636796	235
1	1239	163.830788620409	236
1	1239	163.830788620409	237
1	1239	163.830788620409	238
1	1239	163.830788620409	239
1	1268	168.578250161395	240
1	1268	168.578250161395	241
1	1268	168.578250161395	242
1	1268	168.578250161395	243
1	1293	171.299044245483	244
1	1293	171.299044245483	245
1	1293	171.299044245483	246
1	1293	171.299044245483	247
1	1309	173.084632735818	248
1	1309	173.084632735818	249
1	1309	173.084632735818	250
1	1309	173.084632735818	251
1	1318	176.201811761262	252
1	1318	176.201811761262	253
1	1318	176.201811761262	254
1	1318	176.201811761262	255
1	1336	183.378519044292	256
1	1336	183.378519044292	257
1	1336	183.378519044292	258
1	1336	183.378519044292	259
1	1358	186.252843218843	260
1	1358	186.252843218843	261
1	1358	186.252843218843	262
1	1358	186.252843218843	263
1	1367	189.077157584232	264
1	1367	189.077157584232	265
1	1367	189.077157584232	266
1	1367	189.077157584232	267
1	1386	190.638811508628	268
1	1386	190.638811508628	269
1	1386	190.638811508628	270
1	1386	190.638811508628	271
1	1419	198.139416918296	272
1	1419	198.139416918296	273
1	1419	198.139416918296	274
1	1419	198.139416918296	275
1	1450	205.981407820266	276
1	1450	205.981407820266	277
1	1450	205.981407820266	278
1	1450	205.981407820266	279
1	1475	208.886058705352	280
1	1475	208.886058705352	281
1	1475	208.886058705352	282
1	1475	208.886058705352	283
1	1482	209.999768954835	284
1	1482	209.999768954835	285
1	1482	209.999768954835	286
1	1482	209.999768954835	287
1	1505	211.016634732044	288
1	1505	211.016634732044	289
1	1505	211.016634732044	290
1	1505	211.016634732044	291
1	1521	212.436862045664	292
1	1521	212.436862045664	293
1	1521	212.436862045664	294
1	1521	212.436862045664	295
1	1544	214.00419460233	296
1	1544	214.00419460233	297
1	1544	214.00419460233	298
1	1544	214.00419460233	299
1	1558	215.265238850718	300
1	1558	215.265238850718	301
1	1558	215.265238850718	302
1	1558	215.265238850718	303
1	1581	222.50309012452	304
1	1581	222.50309012452	305
1	1581	222.50309012452	306
1	1581	222.50309012452	307
1	1603	225.426166015834	308
1	1603	225.426166015834	309
1	1603	225.426166015834	310
1	1603	225.426166015834	311
1	1622	226.417125841483	312
1	1622	226.417125841483	313
1	1622	226.417125841483	314
1	1622	226.417125841483	315
1	1634	228.982423902383	316
1	1634	228.982423902383	317
1	1634	228.982423902383	318
1	1634	228.982423902383	319
1	1654	233.32048866476	320
1	1654	233.32048866476	321
1	1654	233.32048866476	322
1	1654	233.32048866476	323
1	1679	236.033809115673	324
1	1679	236.033809115673	325
1	1679	236.033809115673	326
1	1679	236.033809115673	327
1	1702	237.801953849325	328
1	1702	237.801953849325	329
1	1702	237.801953849325	330
1	1702	237.801953849325	331
1	1712	239.67959524724	332
1	1712	239.67959524724	333
1	1712	239.67959524724	334
1	1712	239.67959524724	335
2	8	0.158381092426	0
2	8	0.158381092426	1
2	8	0.158381092426	2
2	33	3.296104855021	3
2	33	3.296104855021	4
2	33	3.296104855021	5
2	52	5.233667065032	6
2	52	5.233667065032	7
2	52	5.233667065032	8
2	83	15.648473877183	9
2	83	15.648473877183	10
2	83	15.648473877183	11
2	106	17.576493421497	12
2	106	17.576493421497	13
2	106	17.576493421497	14
2	129	18.912941994341	15
2	129	18.912941994341	16
2	129	18.912941994341	17
2	174	27.8520778349	18
2	174	27.8520778349	19
2	174	27.8520778349	20
2	211	31.572453339808	21
2	211	31.572453339808	22
2	211	31.572453339808	23
2	232	34.801021556488	24
2	232	34.801021556488	25
2	232	34.801021556488	26
2	248	36.654730944439	27
2	248	36.654730944439	28
2	248	36.654730944439	29
2	291	43.837445314182	30
2	291	43.837445314182	31
2	291	43.837445314182	32
2	312	45.273519305063	33
2	312	45.273519305063	34
2	312	45.273519305063	35
2	330	46.408300086495	36
2	330	46.408300086495	37
2	330	46.408300086495	38
2	357	50.653224358855	39
2	357	50.653224358855	40
2	357	50.653224358855	41
2	381	51.882808252141	42
2	381	51.882808252141	43
2	381	51.882808252141	44
2	408	59.075927404266	45
2	408	59.075927404266	46
2	408	59.075927404266	47
2	439	60.975776875738	48
2	439	60.975776875738	49
2	439	60.975776875738	50
2	464	64.551695993175	51
2	464	64.551695993175	52
2	464	64.551695993175	53
2	494	67.552223062006	54
2	494	67.552223062006	55
2	494	67.552223062006	56
2	507	70.213823627629	57
2	507	70.213823627629	58
2	507	70.213823627629	59
2	532	72.606698548022	60
2	532	72.606698548022	61
2	532	72.606698548022	62
2	555	74.195426287829	63
2	555	74.195426287829	64
2	555	74.195426287829	65
2	590	75.464367278892	66
2	590	75.464367278892	67
2	590	75.464367278892	68
2	602	77.212463156706	69
2	602	77.212463156706	70
2	602	77.212463156706	71
2	667	84.653208919482	72
2	667	84.653208919482	73
2	667	84.653208919482	74
2	691	89.011697595378	75
2	691	89.011697595378	76
2	691	89.011697595378	77
2	702	90.062544308327	78
2	702	90.062544308327	79
2	702	90.062544308327	80
2	725	93.230935121906	81
2	725	93.230935121906	82
2	725	93.230935121906	83
2	752	94.384673675382	84
2	752	94.384673675382	85
2	752	94.384673675382	86
2	783	97.540876073653	87
2	783	97.540876073653	88
2	783	97.540876073653	89
2	824	100.915436761219	90
2	824	100.915436761219	91
2	824	100.915436761219	92
2	843	103.150854045562	93
2	843	103.150854045562	94
2	843	103.150854045562	95
2	863	104.270499467742	96
2	863	104.270499467742	97
2	863	104.270499467742	98
2	883	106.062469362702	99
2	883	106.062469362702	100
2	883	106.062469362702	101
2	898	110.948728928212	102
2	898	110.948728928212	103
2	898	110.948728928212	104
2	933	116.129405872086	105
2	933	116.129405872086	106
2	933	116.129405872086	107
2	956	117.871176279557	108
2	956	117.871176279557	109
2	956	117.871176279557	110
2	991	119.27977959556	111
2	991	119.27977959556	112
2	991	119.27977959556	113
2	1012	121.678047250949	114
2	1012	121.678047250949	115
2	1012	121.678047250949	116
2	1028	123.526481373213	117
2	1028	123.526481373213	118
2	1028	123.526481373213	119
2	1059	128.141365056813	120
2	1059	128.141365056813	121
2	1059	128.141365056813	122
2	1070	129.64248482368	123
2	1070	129.64248482368	124
2	1070	129.64248482368	125
2	1093	131.592171204718	126
2	1093	131.592171204718	127
2	1093	131.592171204718	128
2	1127	138.27682365795	129
2	1127	138.27682365795	130
2	1127	138.27682365795	131
2	1158	147.28301900158	132
2	1158	147.28301900158	133
2	1158	147.28301900158	134
2	1184	154.044227407076	135
2	1184	154.044227407076	136
2	1184	154.044227407076	137
2	1222	160.515398642575	138
2	1222	160.515398642575	139
2	1222	160.515398642575	140
2	1247	163.868536166625	141
2	1247	163.868536166625	142
2	1247	163.868536166625	143
2	1280	168.622777684468	144
2	1280	168.622777684468	145
2	1280	168.622777684468	146
2	1350	183.448690502728	147
2	1350	183.448690502728	148
2	1350	183.448690502728	149
2	1399	190.679395063526	150
2	1399	190.679395063526	151
2	1399	190.679395063526	152
2	1425	198.17363028476	153
2	1425	198.17363028476	154
2	1425	198.17363028476	155
2	1464	206.016429400091	156
2	1464	206.016429400091	157
2	1464	206.016429400091	158
2	1487	210.011736161721	159
2	1487	210.011736161721	160
2	1487	210.011736161721	161
2	1515	211.04762291633	162
2	1515	211.04762291633	163
2	1515	211.04762291633	164
2	1538	212.501714068375	165
2	1538	212.501714068375	166
2	1538	212.501714068375	167
2	1552	214.039802541478	168
2	1552	214.039802541478	169
2	1552	214.039802541478	170
2	1563	215.280805877359	171
2	1563	215.280805877359	172
2	1563	215.280805877359	173
2	1586	222.540470357473	174
2	1586	222.540470357473	175
2	1586	222.540470357473	176
2	1614	225.452739961041	177
2	1614	225.452739961041	178
2	1614	225.452739961041	179
2	1639	229.003757784986	180
2	1639	229.003757784986	181
2	1639	229.003757784986	182
2	1665	233.352345450493	183
2	1665	233.352345450493	184
2	1665	233.352345450493	185
2	1692	236.081396421057	186
2	1692	236.081396421057	187
2	1692	236.081396421057	188
2	1717	239.691107151504	189
2	1717	239.691107151504	190
2	1717	239.691107151504	191
3	9	0.160742618959	0
3	9	0.160742618959	1
3	9	0.160742618959	2
3	9	0.160742618959	3
3	37	3.321162697607	4
3	37	3.321162697607	5
3	37	3.321162697607	6
3	37	3.321162697607	7
3	53	5.24233408697	8
3	53	5.24233408697	9
3	53	5.24233408697	10
3	53	5.24233408697	11
3	90	15.666563891771	12
3	90	15.666563891771	13
3	90	15.666563891771	14
3	90	15.666563891771	15
3	117	17.619962038877	16
3	117	17.619962038877	17
3	117	17.619962038877	18
3	117	17.619962038877	19
3	134	18.923078640125	20
3	134	18.923078640125	21
3	134	18.923078640125	22
3	134	18.923078640125	23
3	173	27.847754393797	24
3	173	27.847754393797	25
3	173	27.847754393797	26
3	173	27.847754393797	27
3	199	31.530581831392	28
3	199	31.530581831392	29
3	199	31.530581831392	30
3	199	31.530581831392	31
3	227	34.790635979175	32
3	227	34.790635979175	33
3	227	34.790635979175	34
3	227	34.790635979175	35
3	247	36.652328408873	36
3	247	36.652328408873	37
3	247	36.652328408873	38
3	247	36.652328408873	39
3	274	41.362230751858	40
3	274	41.362230751858	41
3	274	41.362230751858	42
3	274	41.362230751858	43
3	292	43.839205347794	44
3	292	43.839205347794	45
3	292	43.839205347794	46
3	292	43.839205347794	47
3	315	45.282655117312	48
3	315	45.282655117312	49
3	315	45.282655117312	50
3	315	45.282655117312	51
3	337	46.4227626147	52
3	337	46.4227626147	53
3	337	46.4227626147	54
3	337	46.4227626147	55
3	358	50.653516105759	56
3	358	50.653516105759	57
3	358	50.653516105759	58
3	358	50.653516105759	59
3	380	51.881468465873	60
3	380	51.881468465873	61
3	380	51.881468465873	62
3	380	51.881468465873	63
3	410	59.077657198086	64
3	410	59.077657198086	65
3	410	59.077657198086	66
3	410	59.077657198086	67
3	434	60.958443199006	68
3	434	60.958443199006	69
3	434	60.958443199006	70
3	434	60.958443199006	71
3	459	64.534393716523	72
3	459	64.534393716523	73
3	459	64.534393716523	74
3	459	64.534393716523	75
3	482	66.181469836708	76
3	482	66.181469836708	77
3	482	66.181469836708	78
3	482	66.181469836708	79
3	514	70.226595380989	80
3	514	70.226595380989	81
3	514	70.226595380989	82
3	514	70.226595380989	83
3	537	72.618767736355	84
3	537	72.618767736355	85
3	537	72.618767736355	86
3	537	72.618767736355	87
3	557	74.201340232919	88
3	557	74.201340232919	89
3	557	74.201340232919	90
3	557	74.201340232919	91
3	579	75.439545510766	92
3	579	75.439545510766	93
3	579	75.439545510766	94
3	579	75.439545510766	95
3	608	77.222716484517	96
3	608	77.222716484517	97
3	608	77.222716484517	98
3	608	77.222716484517	99
3	626	80.05167508807	100
3	626	80.05167508807	101
3	626	80.05167508807	102
3	626	80.05167508807	103
3	641	81.601395635889	104
3	641	81.601395635889	105
3	641	81.601395635889	106
3	641	81.601395635889	107
3	658	84.605731330756	108
3	658	84.605731330756	109
3	658	84.605731330756	110
3	658	84.605731330756	111
3	682	88.985613416887	112
3	682	88.985613416887	113
3	682	88.985613416887	114
3	682	88.985613416887	115
3	732	93.254627932439	116
3	732	93.254627932439	117
3	732	93.254627932439	118
3	732	93.254627932439	119
3	747	94.371802875405	120
3	747	94.371802875405	121
3	747	94.371802875405	122
3	747	94.371802875405	123
3	763	96.084279900549	124
3	763	96.084279900549	125
3	763	96.084279900549	126
3	763	96.084279900549	127
3	782	97.536006694455	128
3	782	97.536006694455	129
3	782	97.536006694455	130
3	782	97.536006694455	131
3	805	98.636308500226	132
3	805	98.636308500226	133
3	805	98.636308500226	134
3	805	98.636308500226	135
3	822	100.909993968724	136
3	822	100.909993968724	137
3	822	100.909993968724	138
3	822	100.909993968724	139
3	844	103.155075909818	140
3	844	103.155075909818	141
3	844	103.155075909818	142
3	844	103.155075909818	143
3	868	104.291461393352	144
3	868	104.291461393352	145
3	868	104.291461393352	146
3	868	104.291461393352	147
3	919	114.780602162111	148
3	919	114.780602162111	149
3	919	114.780602162111	150
3	919	114.780602162111	151
3	937	116.157681134764	152
3	937	116.157681134764	153
3	937	116.157681134764	154
3	937	116.157681134764	155
3	960	117.881911343331	156
3	960	117.881911343331	157
3	960	117.881911343331	158
3	960	117.881911343331	159
3	979	119.241065387586	160
3	979	119.241065387586	161
3	979	119.241065387586	162
3	979	119.241065387586	163
3	1007	121.66620109222	164
3	1007	121.66620109222	165
3	1007	121.66620109222	166
3	1007	121.66620109222	167
3	1027	123.523820339141	168
3	1027	123.523820339141	169
3	1027	123.523820339141	170
3	1027	123.523820339141	171
3	1071	129.643609256676	172
3	1071	129.643609256676	173
3	1071	129.643609256676	174
3	1071	129.643609256676	175
3	1098	131.609300769509	176
3	1098	131.609300769509	177
3	1098	131.609300769509	178
3	1098	131.609300769509	179
3	1122	138.262053680441	180
3	1122	138.262053680441	181
3	1122	138.262053680441	182
3	1122	138.262053680441	183
3	1159	147.285885853973	184
3	1159	147.285885853973	185
3	1159	147.285885853973	186
3	1159	147.285885853973	187
3	1189	154.05785787862	188
3	1189	154.05785787862	189
3	1189	154.05785787862	190
3	1189	154.05785787862	191
3	1208	156.916527055432	192
3	1208	156.916527055432	193
3	1208	156.916527055432	194
3	1208	156.916527055432	195
3	1223	160.517379258525	196
3	1223	160.517379258525	197
3	1223	160.517379258525	198
3	1223	160.517379258525	199
3	1252	163.900590174663	200
3	1252	163.900590174663	201
3	1252	163.900590174663	202
3	1252	163.900590174663	203
3	1273	168.593929038326	204
3	1273	168.593929038326	205
3	1273	168.593929038326	206
3	1273	168.593929038326	207
3	1298	171.328853798444	208
3	1298	171.328853798444	209
3	1298	171.328853798444	210
3	1298	171.328853798444	211
3	1341	183.39332196243	212
3	1341	183.39332196243	213
3	1341	183.39332196243	214
3	1341	183.39332196243	215
3	1372	189.096479451638	216
3	1372	189.096479451638	217
3	1372	189.096479451638	218
3	1372	189.096479451638	219
3	1394	190.664723531261	220
3	1394	190.664723531261	221
3	1394	190.664723531261	222
3	1394	190.664723531261	223
3	1428	198.182705869662	224
3	1428	198.182705869662	225
3	1428	198.182705869662	226
3	1428	198.182705869662	227
3	1455	205.993548642213	228
3	1455	205.993548642213	229
3	1455	205.993548642213	230
3	1455	205.993548642213	231
3	1494	210.038638899459	232
3	1494	210.038638899459	233
3	1494	210.038638899459	234
3	1494	210.038638899459	235
3	1510	211.029743652675	236
3	1510	211.029743652675	237
3	1510	211.029743652675	238
3	1510	211.029743652675	239
3	1529	212.475860808132	240
3	1529	212.475860808132	241
3	1529	212.475860808132	242
3	1529	212.475860808132	243
3	1591	222.559911769994	244
3	1591	222.559911769994	245
3	1591	222.559911769994	246
3	1591	222.559911769994	247
3	1608	225.440904631624	248
3	1608	225.440904631624	249
3	1608	225.440904631624	250
3	1608	225.440904631624	251
3	1640	229.005378469022	252
3	1640	229.005378469022	253
3	1640	229.005378469022	254
3	1640	229.005378469022	255
3	1659	233.33219918295	256
3	1659	233.33219918295	257
3	1659	233.33219918295	258
3	1659	233.33219918295	259
3	1687	236.062837928843	260
3	1687	236.062837928843	261
3	1687	236.062837928843	262
3	1687	236.062837928843	263
3	1721	239.728771953185	264
3	1721	239.728771953185	265
3	1721	239.728771953185	266
3	1721	239.728771953185	267
4	10	0.163252200566	0
4	10	0.163252200566	1
4	42	3.369614916298	2
4	42	3.369614916298	3
4	61	5.261063973007	4
4	61	5.261063973007	5
4	84	15.654689631111	6
4	84	15.654689631111	7
4	107	17.577760085603	8
4	107	17.577760085603	9
4	130	18.915353327953	10
4	130	18.915353327953	11
4	172	27.84565674848	12
4	172	27.84565674848	13
4	204	31.543729048001	14
4	204	31.543729048001	15
4	224	34.76382675713	16
4	224	34.76382675713	17
4	257	36.668769455956	18
4	257	36.668769455956	19
4	279	41.388415309295	20
4	279	41.388415309295	21
4	311	45.27114720721	22
4	311	45.27114720721	23
4	331	46.410755701927	24
4	331	46.410755701927	25
4	367	50.675525814824	26
4	367	50.675525814824	27
4	409	59.076373697444	28
4	409	59.076373697444	29
4	431	60.943606815131	30
4	431	60.943606815131	31
4	456	64.503166249984	32
4	456	64.503166249984	33
4	479	66.170219510809	34
4	479	66.170219510809	35
4	508	70.215303931771	36
4	508	70.215303931771	37
4	533	72.61221825466	38
4	533	72.61221825466	39
4	556	74.201096667593	40
4	556	74.201096667593	41
4	578	75.435806054962	42
4	578	75.435806054962	43
4	601	77.211615034307	44
4	601	77.211615034307	45
4	631	80.078304745877	46
4	631	80.078304745877	47
4	646	81.611965301214	48
4	646	81.611965301214	49
4	724	93.223253715535	50
4	724	93.223253715535	51
4	768	96.102854251575	52
4	768	96.102854251575	53
4	795	97.564913985999	54
4	795	97.564913985999	55
4	810	98.653964907494	56
4	810	98.653964907494	57
4	823	100.91054169697	58
4	823	100.91054169697	59
4	902	110.959521100444	60
4	902	110.959521100444	61
4	918	114.777455520542	62
4	918	114.777455520542	63
4	942	116.174660510252	64
4	942	116.174660510252	65
4	961	117.88206953694	66
4	961	117.88206953694	67
4	985	119.254058917615	68
4	985	119.254058917615	69
4	1004	121.646375808793	70
4	1004	121.646375808793	71
4	1037	123.547880431205	72
4	1037	123.547880431205	73
4	1083	129.683341340071	74
4	1083	129.683341340071	75
4	1106	131.625135371232	76
4	1106	131.625135371232	77
4	1128	138.279920511596	78
4	1128	138.279920511596	79
4	1155	147.267189700365	80
4	1155	147.267189700365	81
4	1188	154.054710330202	82
4	1188	154.054710330202	83
4	1205	156.897181251269	84
4	1205	156.897181251269	85
4	1244	163.85193728895	86
4	1244	163.85193728895	87
4	1278	168.612837576345	88
4	1278	168.612837576345	89
4	1323	176.212216340819	90
4	1323	176.212216340819	91
4	1373	189.098114082934	92
4	1373	189.098114082934	93
4	1391	190.650925720378	94
4	1391	190.650925720378	95
4	1424	198.171040967723	96
4	1424	198.171040967723	97
4	1456	206.000075230973	98
4	1456	206.000075230973	99
4	1488	210.019258818303	100
4	1488	210.019258818303	101
4	1526	212.450958317265	102
4	1526	212.450958317265	103
4	1549	214.017677088672	104
4	1549	214.017677088672	105
4	1609	225.448511554532	106
4	1609	225.448511554532	107
4	1627	226.429780791909	108
4	1627	226.429780791909	109
4	1664	233.343428340832	110
4	1664	233.343428340832	111
4	1684	236.044943162895	112
4	1684	236.044943162895	113
4	1707	237.823477959519	114
4	1707	237.823477959519	115
4	1726	239.742096472401	116
4	1726	239.742096472401	117
5	20	0.173926180367	0
5	20	0.173926180367	1
5	20	0.173926180367	2
5	91	15.669463001859	3
5	91	15.669463001859	4
5	91	15.669463001859	5
5	113	17.597080848648	6
5	113	17.597080848648	7
5	113	17.597080848648	8
5	141	18.970568954721	9
5	141	18.970568954721	10
5	141	18.970568954721	11
5	184	27.863491142036	12
5	184	27.863491142036	13
5	184	27.863491142036	14
5	207	31.55386941013	15
5	207	31.55386941013	16
5	207	31.55386941013	17
5	236	34.821930973136	18
5	236	34.821930973136	19
5	236	34.821930973136	20
5	256	36.668127591765	21
5	256	36.668127591765	22
5	256	36.668127591765	23
5	300	43.867602675645	24
5	300	43.867602675645	25
5	300	43.867602675645	26
5	338	46.431393070135	27
5	338	46.431393070135	28
5	338	46.431393070135	29
5	366	50.672939180436	30
5	366	50.672939180436	31
5	366	50.672939180436	32
5	389	51.898825042006	33
5	389	51.898825042006	34
5	389	51.898825042006	35
5	420	59.100199230787	36
5	420	59.100199230787	37
5	420	59.100199230787	38
5	443	60.989514508676	39
5	443	60.989514508676	40
5	443	60.989514508676	41
5	468	64.564021243359	42
5	468	64.564021243359	43
5	468	64.564021243359	44
5	519	70.236979890212	45
5	519	70.236979890212	46
5	519	70.236979890212	47
5	540	72.623346625518	48
5	540	72.623346625518	49
5	540	72.623346625518	50
5	567	74.211473485367	51
5	567	74.211473485367	52
5	567	74.211473485367	53
5	586	75.453081476519	54
5	586	75.453081476519	55
5	586	75.453081476519	56
5	613	77.234137739631	57
5	613	77.234137739631	58
5	613	77.234137739631	59
5	663	84.631268785776	60
5	663	84.631268785776	61
5	663	84.631268785776	62
5	687	88.996069797382	63
5	687	88.996069797382	64
5	687	88.996069797382	65
5	706	90.079678151155	66
5	706	90.079678151155	67
5	706	90.079678151155	68
5	731	93.253814741657	69
5	731	93.253814741657	70
5	731	93.253814741657	71
5	769	96.111470593667	72
5	769	96.111470593667	73
5	769	96.111470593667	74
5	788	97.546345413007	75
5	788	97.546345413007	76
5	788	97.546345413007	77
5	852	103.17103622135	78
5	852	103.17103622135	79
5	852	103.17103622135	80
5	867	104.287783243472	81
5	867	104.287783243472	82
5	867	104.287783243472	83
5	903	110.961493655377	84
5	903	110.961493655377	85
5	903	110.961493655377	86
5	945	116.196255388242	87
5	945	116.196255388242	88
5	945	116.196255388242	89
5	962	117.884640612832	90
5	962	117.884640612832	91
5	962	117.884640612832	92
5	984	119.25349284196	93
5	984	119.25349284196	94
5	984	119.25349284196	95
5	1016	121.710350341244	96
5	1016	121.710350341244	97
5	1016	121.710350341244	98
5	1036	123.544430101574	99
5	1036	123.544430101574	100
5	1036	123.544430101574	101
5	1079	129.660229991559	102
5	1079	129.660229991559	103
5	1079	129.660229991559	104
5	1097	131.606235333385	105
5	1097	131.606235333385	106
5	1097	131.606235333385	107
5	1129	138.281774170126	108
5	1129	138.281774170126	109
5	1129	138.281774170126	110
5	1167	147.297108176872	111
5	1167	147.297108176872	112
5	1167	147.297108176872	113
5	1231	160.531585935249	114
5	1231	160.531585935249	115
5	1231	160.531585935249	116
5	1251	163.892999242347	117
5	1251	163.892999242347	118
5	1251	163.892999242347	119
5	1279	168.61760957854	120
5	1279	168.61760957854	121
5	1279	168.61760957854	122
5	1303	171.347554597548	123
5	1303	171.347554597548	124
5	1303	171.347554597548	125
5	1346	183.414157444313	126
5	1346	183.414157444313	127
5	1346	183.414157444313	128
5	1380	189.128487620382	129
5	1380	189.128487620382	130
5	1380	189.128487620382	131
5	1403	190.69322442346	132
5	1403	190.69322442346	133
5	1403	190.69322442346	134
5	1432	198.189303965957	135
5	1432	198.189303965957	136
5	1432	198.189303965957	137
5	1463	206.013830695396	138
5	1463	206.013830695396	139
5	1463	206.013830695396	140
5	1495	210.043098100984	141
5	1495	210.043098100984	142
5	1495	210.043098100984	143
5	1534	212.491041098703	144
5	1534	212.491041098703	145
5	1534	212.491041098703	146
5	1567	215.30378424305	147
5	1567	215.30378424305	148
5	1567	215.30378424305	149
5	1590	222.550497164056	150
5	1590	222.550497164056	151
5	1590	222.550497164056	152
5	1668	233.355214604035	153
5	1668	233.355214604035	154
5	1668	233.355214604035	155
5	1696	236.095517832751	156
5	1696	236.095517832751	157
5	1696	236.095517832751	158
5	1727	239.742921519012	159
5	1727	239.742921519012	160
5	1727	239.742921519012	161
6	144	18.980568954721	0
6	187	27.873491142036	1
6	239	34.831930973136	2
6	260	36.678127591765	3
6	370	50.682939180436	4
6	446	60.999514508676	5
6	471	64.574021243359	6
6	616	77.244137739631	7
6	908	110.971493655377	8
6	948	116.206255388242	9
6	988	119.26349284196	10
6	1019	121.720350341244	11
6	1040	123.554430101574	12
6	1101	131.616235333385	13
6	1234	160.541585935249	14
6	1285	168.62760957854	15
6	1349	183.424157444313	16
6	1502	210.053098100984	17
6	1537	212.501041098703	18

