version 2
run General-4-20231008-07:03:17-16741
attr configname General
attr datetime 20231008-07:03:17
attr experiment General
attr inifile omnetpp.ini
attr iterationvars ""
attr iterationvarsf ""
attr measurement ""
attr network Network2
attr processid 16741
attr repetition 4
attr replication #4
attr resultdir results
attr runnumber 4
attr seedset 4
param Network2.node[*].transmissionTime "uniform(1s, 2s)"
param Network2.node[*].delayTime "uniform(0.01s, 0.2s)"
param Network2.node[*].processingTime exponential(0.01s)
param Network2.node[*].lossProbability 0.5

vector 0 Network2.node[0] txVector ETV
vector 1 Network2.node[1] txVector ETV
vector 2 Network2.node[6] txVector ETV
vector 3 Network2.node[3] txVector ETV
vector 4 Network2.node[2] txVector ETV
vector 5 Network2.node[4] txVector ETV
vector 6 Network2.node[5] rxVector ETV
0	1	0.193735669288	0
0	24	2.094357123985	1
0	26	3.957350359219	2
0	45	5.940751032592	3
0	52	7.88575487739	4
0	54	9.486497604442	5
0	73	10.654469788228	6
0	96	11.835190382474	7
0	98	13.389931247025	8
0	100	15.014862097022	9
0	116	16.910363258715	10
0	139	18.740551356147	11
0	158	19.83574943353	12
0	160	21.603507474685	13
0	183	22.652041614443	14
0	185	24.133501557788	15
0	195	26.060910168259	16
0	202	27.946707261183	17
0	204	29.359179474103	18
0	206	30.778213514636	19
0	208	32.680635373496	20
0	210	34.660251636679	21
0	233	36.283820475374	22
0	253	38.20133228406	23
0	276	39.784875815657	24
0	299	41.416568058698	25
0	301	43.307555798131	26
0	303	44.623832303953	27
0	310	46.377687753799	28
0	333	48.207105702177	29
0	353	49.487618202731	30
0	355	51.47773512282	31
0	357	53.361777509717	32
0	359	54.381719869483	33
0	361	55.484515109952	34
0	363	56.578595752516	35
0	365	57.844393078624	36
0	388	59.0393407663	37
0	390	60.447323035369	38
0	392	62.184775012233	39
0	407	63.51823139206	40
0	409	64.98108115016	41
0	411	66.405873406366	42
0	413	68.161522695482	43
0	415	69.413021161607	44
0	417	71.276368284053	45
0	440	72.864002690338	46
0	459	74.374908813196	47
0	478	75.925184038155	48
0	480	77.763894738782	49
0	503	79.167704998901	50
0	518	80.702725165443	51
0	541	82.312831562165	52
0	543	84.097442297883	53
0	550	85.10131493552	54
0	569	86.678678631702	55
0	589	88.524871531095	56
0	609	89.574196306442	57
0	611	90.685767210939	58
0	613	92.039619277616	59
0	629	93.570546145004	60
0	644	94.81534541949	61
0	646	96.347573943821	62
0	648	98.286402854289	63
0	671	99.591218562949	64
0	673	101.000299634099	65
0	696	102.671880749673	66
0	715	103.819607758116	67
0	738	105.572673302529	68
0	761	107.227429248545	69
0	763	108.531209894376	70
0	765	110.412247130335	71
0	784	111.726830775537	72
0	807	113.688134575649	73
0	809	114.708196156579	74
0	811	116.324318144857	75
0	813	117.422353990297	76
0	831	119.082212239658	77
0	854	120.139824042018	78
0	861	121.32189904844	79
0	863	122.368073087107	80
0	886	123.464923509551	81
0	888	124.959793227646	82
0	895	126.723785276213	83
0	918	128.438286364	84
0	938	129.469243267705	85
0	940	130.963778849612	86
0	960	132.185494560204	87
0	975	134.070952463584	88
0	998	136.000871746723	89
0	1018	137.762057301511	90
0	1038	139.217140202333	91
0	1040	140.338314013478	92
0	1051	141.753031759212	93
0	1053	142.996411066191	94
0	1055	144.771335703242	95
0	1078	146.220015828652	96
0	1080	147.39611101585	97
0	1103	148.439692926747	98
0	1113	149.568393421513	99
0	1128	150.930942615182	100
0	1130	152.921610431899	101
0	1132	154.841260646856	102
0	1134	156.46945407513	103
0	1157	157.943418158837	104
0	1172	159.667610560697	105
0	1195	161.645606737737	106
0	1197	162.825451915073	107
0	1220	164.307212343127	108
0	1222	165.377950329254	109
0	1224	166.464253739607	110
0	1239	167.964969822824	111
0	1241	169.685256692268	112
0	1243	170.742449412042	113
0	1266	171.756916638849	114
0	1268	173.048861437397	115
0	1287	174.203434835806	116
0	1310	175.852956429043	117
0	1312	177.356125247817	118
0	1331	179.220268087381	119
0	1354	180.358818857384	120
0	1356	181.8846695108	121
0	1379	183.614140956116	122
0	1381	185.101705340122	123
0	1400	186.228210319451	124
0	1423	187.271415816539	125
0	1442	188.953597358813	126
0	1444	190.472172276269	127
0	1467	191.709026355914	128
0	1469	192.991841392744	129
0	1479	194.231808034856	130
0	1481	196.229391863257	131
0	1483	198.114469047789	132
0	1485	199.385665886257	133
0	1496	201.1617522651	134
0	1519	203.056043180092	135
0	1542	204.867989601954	136
0	1544	205.958905580142	137
0	1563	207.375032829741	138
0	1565	208.580802555816	139
0	1585	209.680483641257	140
0	1604	210.981946842666	141
0	1627	212.033062734097	142
0	1634	213.75169405473	143
0	1636	215.158787264876	144
0	1638	216.515775849964	145
0	1640	218.296422916851	146
0	1659	219.433752265214	147
0	1661	221.087129877335	148
0	1680	222.985086948531	149
0	1703	224.873885149056	150
0	1705	226.479321928149	151
0	1721	227.506105265034	152
0	1723	229.49914960462	153
0	1746	231.158779843863	154
0	1748	233.133150290618	155
0	1767	234.593652634802	156
0	1769	236.072511638202	157
0	1771	237.348229064293	158
0	1773	239.228900675814	159
1	3	0.205631491707	0
1	3	0.205631491707	1
1	3	0.205631491707	2
1	3	0.205631491707	3
1	28	3.969139739021	4
1	28	3.969139739021	5
1	28	3.969139739021	6
1	28	3.969139739021	7
1	47	5.956663243761	8
1	47	5.956663243761	9
1	47	5.956663243761	10
1	47	5.956663243761	11
1	56	9.509716919199	12
1	56	9.509716919199	13
1	56	9.509716919199	14
1	56	9.509716919199	15
1	75	10.668269461093	16
1	75	10.668269461093	17
1	75	10.668269461093	18
1	75	10.668269461093	19
1	102	15.029369655067	20
1	102	15.029369655067	21
1	102	15.029369655067	22
1	102	15.029369655067	23
1	118	16.925755103442	24
1	118	16.925755103442	25
1	118	16.925755103442	26
1	118	16.925755103442	27
1	141	18.753003078876	28
1	141	18.753003078876	29
1	141	18.753003078876	30
1	141	18.753003078876	31
1	162	21.614670769453	32
1	162	21.614670769453	33
1	162	21.614670769453	34
1	162	21.614670769453	35
1	187	24.145454507049	36
1	187	24.145454507049	37
1	187	24.145454507049	38
1	187	24.145454507049	39
1	197	26.078793034118	40
1	197	26.078793034118	41
1	197	26.078793034118	42
1	197	26.078793034118	43
1	212	34.671120122769	44
1	212	34.671120122769	45
1	212	34.671120122769	46
1	212	34.671120122769	47
1	235	36.320657323186	48
1	235	36.320657323186	49
1	235	36.320657323186	50
1	235	36.320657323186	51
1	255	38.224310102714	52
1	255	38.224310102714	53
1	255	38.224310102714	54
1	255	38.224310102714	55
1	278	39.798273106602	56
1	278	39.798273106602	57
1	278	39.798273106602	58
1	278	39.798273106602	59
1	305	44.637106682814	60
1	305	44.637106682814	61
1	305	44.637106682814	62
1	305	44.637106682814	63
1	312	46.403139825204	64
1	312	46.403139825204	65
1	312	46.403139825204	66
1	312	46.403139825204	67
1	335	48.230938372238	68
1	335	48.230938372238	69
1	335	48.230938372238	70
1	335	48.230938372238	71
1	367	57.859404081528	72
1	367	57.859404081528	73
1	367	57.859404081528	74
1	367	57.859404081528	75
1	394	62.216502362064	76
1	394	62.216502362064	77
1	394	62.216502362064	78
1	394	62.216502362064	79
1	419	71.298683261492	80
1	419	71.298683261492	81
1	419	71.298683261492	82
1	419	71.298683261492	83
1	442	72.888252465997	84
1	442	72.888252465997	85
1	442	72.888252465997	86
1	442	72.888252465997	87
1	461	74.400611013023	88
1	461	74.400611013023	89
1	461	74.400611013023	90
1	461	74.400611013023	91
1	482	77.782273439113	92
1	482	77.782273439113	93
1	482	77.782273439113	94
1	482	77.782273439113	95
1	505	79.181192677236	96
1	505	79.181192677236	97
1	505	79.181192677236	98
1	505	79.181192677236	99
1	520	80.71532316195	100
1	520	80.71532316195	101
1	520	80.71532316195	102
1	520	80.71532316195	103
1	545	84.134554243628	104
1	545	84.134554243628	105
1	545	84.134554243628	106
1	545	84.134554243628	107
1	552	85.116581701207	108
1	552	85.116581701207	109
1	552	85.116581701207	110
1	552	85.116581701207	111
1	571	86.725559412481	112
1	571	86.725559412481	113
1	571	86.725559412481	114
1	571	86.725559412481	115
1	591	88.537042042081	116
1	591	88.537042042081	117
1	591	88.537042042081	118
1	591	88.537042042081	119
1	615	92.04963284553	120
1	615	92.04963284553	121
1	615	92.04963284553	122
1	615	92.04963284553	123
1	631	93.604709988996	124
1	631	93.604709988996	125
1	631	93.604709988996	126
1	631	93.604709988996	127
1	650	98.297059310951	128
1	650	98.297059310951	129
1	650	98.297059310951	130
1	650	98.297059310951	131
1	675	101.013702276314	132
1	675	101.013702276314	133
1	675	101.013702276314	134
1	675	101.013702276314	135
1	698	102.682516849497	136
1	698	102.682516849497	137
1	698	102.682516849497	138
1	698	102.682516849497	139
1	717	103.838758977757	140
1	717	103.838758977757	141
1	717	103.838758977757	142
1	717	103.838758977757	143
1	740	105.587345981527	144
1	740	105.587345981527	145
1	740	105.587345981527	146
1	740	105.587345981527	147
1	767	110.4226483033	148
1	767	110.4226483033	149
1	767	110.4226483033	150
1	767	110.4226483033	151
1	786	111.753473064664	152
1	786	111.753473064664	153
1	786	111.753473064664	154
1	786	111.753473064664	155
1	815	117.440882030601	156
1	815	117.440882030601	157
1	815	117.440882030601	158
1	815	117.440882030601	159
1	833	119.1028688825	160
1	833	119.1028688825	161
1	833	119.1028688825	162
1	833	119.1028688825	163
1	856	120.164291132396	164
1	856	120.164291132396	165
1	856	120.164291132396	166
1	856	120.164291132396	167
1	865	122.38469127792	168
1	865	122.38469127792	169
1	865	122.38469127792	170
1	865	122.38469127792	171
1	890	124.977156287004	172
1	890	124.977156287004	173
1	890	124.977156287004	174
1	890	124.977156287004	175
1	897	126.744485817532	176
1	897	126.744485817532	177
1	897	126.744485817532	178
1	897	126.744485817532	179
1	920	128.459212794378	180
1	920	128.459212794378	181
1	920	128.459212794378	182
1	920	128.459212794378	183
1	942	130.977214255743	184
1	942	130.977214255743	185
1	942	130.977214255743	186
1	942	130.977214255743	187
1	962	132.201703507269	188
1	962	132.201703507269	189
1	962	132.201703507269	190
1	962	132.201703507269	191
1	977	134.087218196837	192
1	977	134.087218196837	193
1	977	134.087218196837	194
1	977	134.087218196837	195
1	1000	136.032042635403	196
1	1000	136.032042635403	197
1	1000	136.032042635403	198
1	1000	136.032042635403	199
1	1020	137.77588058544	200
1	1020	137.77588058544	201
1	1020	137.77588058544	202
1	1020	137.77588058544	203
1	1042	140.359549644806	204
1	1042	140.359549644806	205
1	1042	140.359549644806	206
1	1042	140.359549644806	207
1	1057	144.794399333629	208
1	1057	144.794399333629	209
1	1057	144.794399333629	210
1	1057	144.794399333629	211
1	1082	147.406120086714	212
1	1082	147.406120086714	213
1	1082	147.406120086714	214
1	1082	147.406120086714	215
1	1105	148.45921452442	216
1	1105	148.45921452442	217
1	1105	148.45921452442	218
1	1105	148.45921452442	219
1	1115	149.582560667189	220
1	1115	149.582560667189	221
1	1115	149.582560667189	222
1	1115	149.582560667189	223
1	1136	156.495053528984	224
1	1136	156.495053528984	225
1	1136	156.495053528984	226
1	1136	156.495053528984	227
1	1159	157.966432411258	228
1	1159	157.966432411258	229
1	1159	157.966432411258	230
1	1159	157.966432411258	231
1	1174	159.685248191001	232
1	1174	159.685248191001	233
1	1174	159.685248191001	234
1	1174	159.685248191001	235
1	1199	162.850924401422	236
1	1199	162.850924401422	237
1	1199	162.850924401422	238
1	1199	162.850924401422	239
1	1226	166.505287219342	240
1	1226	166.505287219342	241
1	1226	166.505287219342	242
1	1226	166.505287219342	243
1	1245	170.757045726787	244
1	1245	170.757045726787	245
1	1245	170.757045726787	246
1	1245	170.757045726787	247
1	1270	173.07802748484	248
1	1270	173.07802748484	249
1	1270	173.07802748484	250
1	1270	173.07802748484	251
1	1289	174.214988602014	252
1	1289	174.214988602014	253
1	1289	174.214988602014	254
1	1289	174.214988602014	255
1	1314	177.372629843968	256
1	1314	177.372629843968	257
1	1314	177.372629843968	258
1	1314	177.372629843968	259
1	1333	179.26604261806	260
1	1333	179.26604261806	261
1	1333	179.26604261806	262
1	1333	179.26604261806	263
1	1358	181.903636215349	264
1	1358	181.903636215349	265
1	1358	181.903636215349	266
1	1358	181.903636215349	267
1	1383	185.124357669543	268
1	1383	185.124357669543	269
1	1383	185.124357669543	270
1	1383	185.124357669543	271
1	1402	186.248647180393	272
1	1402	186.248647180393	273
1	1402	186.248647180393	274
1	1402	186.248647180393	275
1	1425	187.290764698602	276
1	1425	187.290764698602	277
1	1425	187.290764698602	278
1	1425	187.290764698602	279
1	1446	190.495739352273	280
1	1446	190.495739352273	281
1	1446	190.495739352273	282
1	1446	190.495739352273	283
1	1471	193.003110874031	284
1	1471	193.003110874031	285
1	1471	193.003110874031	286
1	1471	193.003110874031	287
1	1487	199.400114717994	288
1	1487	199.400114717994	289
1	1487	199.400114717994	290
1	1487	199.400114717994	291
1	1498	201.181321371869	292
1	1498	201.181321371869	293
1	1498	201.181321371869	294
1	1498	201.181321371869	295
1	1521	203.07270537586	296
1	1521	203.07270537586	297
1	1521	203.07270537586	298
1	1521	203.07270537586	299
1	1546	205.978470921975	300
1	1546	205.978470921975	301
1	1546	205.978470921975	302
1	1546	205.978470921975	303
1	1567	208.599013323361	304
1	1567	208.599013323361	305
1	1567	208.599013323361	306
1	1567	208.599013323361	307
1	1587	209.693273073158	308
1	1587	209.693273073158	309
1	1587	209.693273073158	310
1	1587	209.693273073158	311
1	1606	210.992412649457	312
1	1606	210.992412649457	313
1	1606	210.992412649457	314
1	1606	210.992412649457	315
1	1629	212.043320626644	316
1	1629	212.043320626644	317
1	1629	212.043320626644	318
1	1629	212.043320626644	319
1	1642	218.320978202586	320
1	1642	218.320978202586	321
1	1642	218.320978202586	322
1	1642	218.320978202586	323
1	1663	221.097782751281	324
1	1663	221.097782751281	325
1	1663	221.097782751281	326
1	1663	221.097782751281	327
1	1682	223.046436334615	328
1	1682	223.046436334615	329
1	1682	223.046436334615	330
1	1682	223.046436334615	331
1	1707	226.522978602438	332
1	1707	226.522978602438	333
1	1707	226.522978602438	334
1	1707	226.522978602438	335
1	1725	229.512395429323	336
1	1725	229.512395429323	337
1	1725	229.512395429323	338
1	1725	229.512395429323	339
1	1750	233.149750924991	340
1	1750	233.149750924991	341
1	1750	233.149750924991	342
1	1750	233.149750924991	343
1	1775	239.244693461226	344
1	1775	239.244693461226	345
1	1775	239.244693461226	346
1	1775	239.244693461226	347
2	8	0.218066095948	0
2	8	0.218066095948	1
2	33	3.984026651129	2
2	33	3.984026651129	3
2	66	9.547454266577	4
2	66	9.547454266577	5
2	93	10.711805388285	6
2	93	10.711805388285	7
2	123	16.939777424419	8
2	123	16.939777424419	9
2	146	18.763667162916	10
2	146	18.763667162916	11
2	167	21.626051160066	12
2	167	21.626051160066	13
2	192	24.161852871201	14
2	192	24.161852871201	15
2	217	34.687817771517	16
2	217	34.687817771517	17
2	265	38.257010493298	18
2	265	38.257010493298	19
2	283	39.824924574732	20
2	283	39.824924574732	21
2	322	46.438221151152	22
2	322	46.438221151152	23
2	372	57.874149741998	24
2	372	57.874149741998	25
2	399	62.229125701973	26
2	399	62.229125701973	27
2	425	71.316588785341	28
2	425	71.316588785341	29
2	448	72.903982508731	30
2	448	72.903982508731	31
2	467	74.413248783262	32
2	467	74.413248783262	33
2	493	77.805780947859	34
2	493	77.805780947859	35
2	515	79.207423355861	36
2	515	79.207423355861	37
2	525	80.725538768041	38
2	525	80.725538768041	39
2	563	85.140077087752	40
2	563	85.140077087752	41
2	637	93.620018849528	42
2	637	93.620018849528	43
2	664	98.330850639262	44
2	664	98.330850639262	45
2	690	101.04282687685	46
2	690	101.04282687685	47
2	703	102.698509916375	48
2	703	102.698509916375	49
2	722	103.86406403841	50
2	722	103.86406403841	51
2	754	105.61941939449	52
2	754	105.61941939449	53
2	778	110.444591121049	54
2	778	110.444591121049	55
2	792	111.772825424239	56
2	792	111.772825424239	57
2	825	117.475563914144	58
2	825	117.475563914144	59
2	847	119.131428142499	60
2	847	119.131428142499	61
2	870	122.41323307146	62
2	870	122.41323307146	63
2	915	126.804311307177	64
2	915	126.804311307177	65
2	967	132.216388025331	66
2	967	132.216388025331	67
2	992	134.11933265411	68
2	992	134.11933265411	69
2	1067	144.822588924738	70
2	1067	144.822588924738	71
2	1087	147.419491193415	72
2	1087	147.419491193415	73
2	1110	148.470018032958	74
2	1110	148.470018032958	75
2	1120	149.614021658207	76
2	1120	149.614021658207	77
2	1141	156.519675016065	78
2	1141	156.519675016065	79
2	1164	157.980338810904	80
2	1164	157.980338810904	81
2	1179	159.697071138883	82
2	1179	159.697071138883	83
2	1204	162.865680755884	84
2	1204	162.865680755884	85
2	1232	166.519720490525	86
2	1232	166.519720490525	87
2	1260	170.782715664942	88
2	1260	170.782715664942	89
2	1276	173.090209616226	90
2	1276	173.090209616226	91
2	1295	174.237037572331	92
2	1295	174.237037572331	93
2	1319	177.389125151999	94
2	1319	177.389125151999	95
2	1339	179.294222011711	96
2	1339	179.294222011711	97
2	1369	181.931410964364	98
2	1369	181.931410964364	99
2	1397	185.172427048349	100
2	1397	185.172427048349	101
2	1408	186.260291071165	102
2	1408	186.260291071165	103
2	1439	187.350200703466	104
2	1439	187.350200703466	105
2	1452	190.520231822609	106
2	1452	190.520231822609	107
2	1476	193.02466238832	108
2	1476	193.02466238832	109
2	1503	201.193258119974	110
2	1503	201.193258119974	111
2	1539	203.13934479414	112
2	1539	203.13934479414	113
2	1551	205.990801752894	114
2	1551	205.990801752894	115
2	1592	209.714389940018	116
2	1592	209.714389940018	117
2	1615	211.018384387151	118
2	1615	211.018384387151	119
2	1647	218.331775680214	120
2	1647	218.331775680214	121
2	1673	221.16497576396	122
2	1673	221.16497576396	123
2	1697	223.078501058625	124
2	1697	223.078501058625	125
2	1730	229.532132888856	126
2	1730	229.532132888856	127
2	1761	233.187816545822	128
2	1761	233.187816545822	129
2	1780	239.257735172724	130
2	1780	239.257735172724	131
3	9	0.227595799025	0
3	9	0.227595799025	1
3	9	0.227595799025	2
3	61	9.527222750628	3
3	61	9.527222750628	4
3	61	9.527222750628	5
3	80	10.682975394064	6
3	80	10.682975394064	7
3	80	10.682975394064	8
3	112	15.091081891016	9
3	112	15.091081891016	10
3	112	15.091081891016	11
3	131	16.959217151087	12
3	131	16.959217151087	13
3	131	16.959217151087	14
3	154	18.789767430316	15
3	154	18.789767430316	16
3	154	18.789767430316	17
3	171	21.65117357423	18
3	171	21.65117357423	19
3	171	21.65117357423	20
3	219	34.694883357669	21
3	219	34.694883357669	22
3	219	34.694883357669	23
3	240	36.332830239138	24
3	240	36.332830239138	25
3	240	36.332830239138	26
3	266	38.258205510906	27
3	266	38.258205510906	28
3	266	38.258205510906	29
3	291	39.87293192717	30
3	291	39.87293192717	31
3	291	39.87293192717	32
3	323	46.444688369387	33
3	323	46.444688369387	34
3	323	46.444688369387	35
3	341	48.249082080164	36
3	341	48.249082080164	37
3	341	48.249082080164	38
3	384	57.932032676547	39
3	384	57.932032676547	40
3	384	57.932032676547	41
3	424	71.310149198424	42
3	424	71.310149198424	43
3	424	71.310149198424	44
3	447	72.899312186699	45
3	447	72.899312186699	46
3	447	72.899312186699	47
3	466	74.411921093088	48
3	466	74.411921093088	49
3	466	74.411921093088	50
3	492	77.805182513041	51
3	492	77.805182513041	52
3	492	77.805182513041	53
3	526	80.727473861312	54
3	526	80.727473861312	55
3	526	80.727473861312	56
3	558	85.133333519692	57
3	558	85.133333519692	58
3	558	85.133333519692	59
3	576	86.769206697049	60
3	576	86.769206697049	61
3	576	86.769206697049	62
3	605	88.590878714152	63
3	605	88.590878714152	64
3	605	88.590878714152	65
3	625	92.109487710377	66
3	625	92.109487710377	67
3	625	92.109487710377	68
3	655	98.312131762061	69
3	655	98.312131762061	70
3	655	98.312131762061	71
3	680	101.024511869288	72
3	680	101.024511869288	73
3	680	101.024511869288	74
3	711	102.711080312743	75
3	711	102.711080312743	76
3	711	102.711080312743	77
3	723	103.867249167126	78
3	723	103.867249167126	79
3	723	103.867249167126	80
3	745	105.602356200015	81
3	745	105.602356200015	82
3	745	105.602356200015	83
3	773	110.436046468457	84
3	773	110.436046468457	85
3	773	110.436046468457	86
3	791	111.766557287585	87
3	791	111.766557287585	88
3	791	111.766557287585	89
3	820	117.459375999204	90
3	820	117.459375999204	91
3	820	117.459375999204	92
3	838	119.115485987593	93
3	838	119.115485987593	94
3	838	119.115485987593	95
3	878	122.446341882484	96
3	878	122.446341882484	97
3	878	122.446341882484	98
3	907	126.779627780172	99
3	907	126.779627780172	100
3	907	126.779627780172	101
3	925	128.474005575786	102
3	925	128.474005575786	103
3	925	128.474005575786	104
3	948	130.996931836556	105
3	948	130.996931836556	106
3	948	130.996931836556	107
3	982	134.098906782401	108
3	982	134.098906782401	109
3	982	134.098906782401	110
3	1005	136.042452754513	111
3	1005	136.042452754513	112
3	1005	136.042452754513	113
3	1026	137.804334712777	114
3	1026	137.804334712777	115
3	1026	137.804334712777	116
3	1047	140.369737099836	117
3	1047	140.369737099836	118
3	1047	140.369737099836	119
3	1069	144.830488115745	120
3	1069	144.830488115745	121
3	1069	144.830488115745	122
3	1095	147.434745932191	123
3	1095	147.434745932191	124
3	1095	147.434745932191	125
3	1144	156.542213896023	126
3	1144	156.542213896023	127
3	1144	156.542213896023	128
3	1187	159.746279709927	129
3	1187	159.746279709927	130
3	1187	159.746279709927	131
3	1205	162.872259001605	132
3	1205	162.872259001605	133
3	1205	162.872259001605	134
3	1251	170.768532336954	135
3	1251	170.768532336954	136
3	1251	170.768532336954	137
3	1275	173.08936836145	138
3	1275	173.08936836145	139
3	1275	173.08936836145	140
3	1294	174.23111714155	141
3	1294	174.23111714155	142
3	1294	174.23111714155	143
3	1338	179.291261713577	144
3	1338	179.291261713577	145
3	1338	179.291261713577	146
3	1364	181.922970596275	147
3	1364	181.922970596275	148
3	1364	181.922970596275	149
3	1393	185.158810453283	150
3	1393	185.158810453283	151
3	1393	185.158810453283	152
3	1416	186.281459631667	153
3	1416	186.281459631667	154
3	1416	186.281459631667	155
3	1430	187.316372554151	156
3	1430	187.316372554151	157
3	1430	187.316372554151	158
3	1451	190.518223194364	159
3	1451	190.518223194364	160
3	1451	190.518223194364	161
3	1492	199.410505599181	162
3	1492	199.410505599181	163
3	1492	199.410505599181	164
3	1504	201.195987746997	165
3	1504	201.195987746997	166
3	1504	201.195987746997	167
3	1526	203.087751105549	168
3	1526	203.087751105549	169
3	1526	203.087751105549	170
3	1577	208.623503483268	171
3	1577	208.623503483268	172
3	1577	208.623503483268	173
3	1611	211.006080033108	174
3	1611	211.006080033108	175
3	1611	211.006080033108	176
3	1650	218.346539382253	177
3	1650	218.346539382253	178
3	1650	218.346539382253	179
3	1674	221.17439344507	180
3	1674	221.17439344507	181
3	1674	221.17439344507	182
3	1688	223.063052020161	183
3	1688	223.063052020161	184
3	1688	223.063052020161	185
3	1712	226.539276499363	186
3	1712	226.539276499363	187
3	1712	226.539276499363	188
3	1742	229.601185930848	189
3	1742	229.601185930848	190
3	1742	229.601185930848	191
3	1760	233.187105766383	192
3	1760	233.187105766383	193
3	1760	233.187105766383	194
3	1783	239.269404059697	195
3	1783	239.269404059697	196
3	1783	239.269404059697	197
4	12	0.228177698444	0
4	12	0.228177698444	1
4	12	0.228177698444	2
4	12	0.228177698444	3
4	36	3.995850093322	4
4	36	3.995850093322	5
4	36	3.995850093322	6
4	36	3.995850093322	7
4	65	9.540246946393	8
4	65	9.540246946393	9
4	65	9.540246946393	10
4	65	9.540246946393	11
4	85	10.6954989619	12
4	85	10.6954989619	13
4	85	10.6954989619	14
4	85	10.6954989619	15
4	107	15.056024709175	16
4	107	15.056024709175	17
4	107	15.056024709175	18
4	107	15.056024709175	19
4	124	16.94016146397	20
4	124	16.94016146397	21
4	124	16.94016146397	22
4	124	16.94016146397	23
4	147	18.770233659191	24
4	147	18.770233659191	25
4	147	18.770233659191	26
4	147	18.770233659191	27
4	170	21.642577283357	28
4	170	21.642577283357	29
4	170	21.642577283357	30
4	170	21.642577283357	31
4	218	34.688104696773	32
4	218	34.688104696773	33
4	218	34.688104696773	34
4	218	34.688104696773	35
4	244	36.342935053243	36
4	244	36.342935053243	37
4	244	36.342935053243	38
4	244	36.342935053243	39
4	260	38.245024490385	40
4	260	38.245024490385	41
4	260	38.245024490385	42
4	260	38.245024490385	43
4	286	39.860935644541	44
4	286	39.860935644541	45
4	286	39.860935644541	46
4	286	39.860935644541	47
4	317	46.42365878464	48
4	317	46.42365878464	49
4	317	46.42365878464	50
4	317	46.42365878464	51
4	340	48.241891490047	52
4	340	48.241891490047	53
4	340	48.241891490047	54
4	340	48.241891490047	55
4	373	57.875294209284	56
4	373	57.875294209284	57
4	373	57.875294209284	58
4	373	57.875294209284	59
4	400	62.231707068844	60
4	400	62.231707068844	61
4	400	62.231707068844	62
4	400	62.231707068844	63
4	435	71.333137881699	64
4	435	71.333137881699	65
4	435	71.333137881699	66
4	435	71.333137881699	67
4	449	72.908484571718	68
4	449	72.908484571718	69
4	449	72.908484571718	70
4	449	72.908484571718	71
4	468	74.413888467683	72
4	468	74.413888467683	73
4	468	74.413888467683	74
4	468	74.413888467683	75
4	487	77.794078612267	76
4	487	77.794078612267	77
4	487	77.794078612267	78
4	487	77.794078612267	79
4	510	79.193028663482	80
4	510	79.193028663482	81
4	510	79.193028663482	82
4	510	79.193028663482	83
4	536	80.752421760658	84
4	536	80.752421760658	85
4	536	80.752421760658	86
4	536	80.752421760658	87
4	557	85.129339616087	88
4	557	85.129339616087	89
4	557	85.129339616087	90
4	557	85.129339616087	91
4	584	86.807421524885	92
4	584	86.807421524885	93
4	584	86.807421524885	94
4	584	86.807421524885	95
4	596	88.551535931739	96
4	596	88.551535931739	97
4	596	88.551535931739	98
4	596	88.551535931739	99
4	620	92.075538240741	100
4	620	92.075538240741	101
4	620	92.075538240741	102
4	620	92.075538240741	103
4	636	93.61502533599	104
4	636	93.61502533599	105
4	636	93.61502533599	106
4	636	93.61502533599	107
4	656	98.313686554829	108
4	656	98.313686554829	109
4	656	98.313686554829	110
4	656	98.313686554829	111
4	681	101.029379210934	112
4	681	101.029379210934	113
4	681	101.029379210934	114
4	681	101.029379210934	115
4	704	102.699866164154	116
4	704	102.699866164154	117
4	704	102.699866164154	118
4	704	102.699866164154	119
4	729	103.882563947104	120
4	729	103.882563947104	121
4	729	103.882563947104	122
4	729	103.882563947104	123
4	746	105.604101167894	124
4	746	105.604101167894	125
4	746	105.604101167894	126
4	746	105.604101167894	127
4	772	110.43350076743	128
4	772	110.43350076743	129
4	772	110.43350076743	130
4	772	110.43350076743	131
4	797	111.782281956471	132
4	797	111.782281956471	133
4	797	111.782281956471	134
4	797	111.782281956471	135
4	839	119.11865768235	136
4	839	119.11865768235	137
4	839	119.11865768235	138
4	839	119.11865768235	139
4	873	122.426073990545	140
4	873	122.426073990545	141
4	873	122.426073990545	142
4	873	122.426073990545	143
4	902	126.768977877841	144
4	902	126.768977877841	145
4	902	126.768977877841	146
4	902	126.768977877841	147
4	929	128.502228622035	148
4	929	128.502228622035	149
4	929	128.502228622035	150
4	929	128.502228622035	151
4	947	130.992065515913	152
4	947	130.992065515913	153
4	947	130.992065515913	154
4	947	130.992065515913	155
4	970	132.237534113217	156
4	970	132.237534113217	157
4	970	132.237534113217	158
4	970	132.237534113217	159
4	983	134.100584914187	160
4	983	134.100584914187	161
4	983	134.100584914187	162
4	983	134.100584914187	163
4	1006	136.048435933155	164
4	1006	136.048435933155	165
4	1006	136.048435933155	166
4	1006	136.048435933155	167
4	1025	137.804232170053	168
4	1025	137.804232170053	169
4	1025	137.804232170053	170
4	1025	137.804232170053	171
4	1062	144.805828666443	172
4	1062	144.805828666443	173
4	1062	144.805828666443	174
4	1062	144.805828666443	175
4	1088	147.421022126556	176
4	1088	147.421022126556	177
4	1088	147.421022126556	178
4	1088	147.421022126556	179
4	1123	149.624503750271	180
4	1123	149.624503750271	181
4	1123	149.624503750271	182
4	1123	149.624503750271	183
4	1145	156.543868499738	184
4	1145	156.543868499738	185
4	1145	156.543868499738	186
4	1145	156.543868499738	187
4	1167	157.995096468225	188
4	1167	157.995096468225	189
4	1167	157.995096468225	190
4	1167	157.995096468225	191
4	1182	159.711994280156	192
4	1182	159.711994280156	193
4	1182	159.711994280156	194
4	1182	159.711994280156	195
4	1206	162.872538757095	196
4	1206	162.872538757095	197
4	1206	162.872538757095	198
4	1206	162.872538757095	199
4	1231	166.51854901689	200
4	1231	166.51854901689	201
4	1231	166.51854901689	202
4	1231	166.51854901689	203
4	1250	170.767369836775	204
4	1250	170.767369836775	205
4	1250	170.767369836775	206
4	1250	170.767369836775	207
4	1282	173.100376028772	208
4	1282	173.100376028772	209
4	1282	173.100376028772	210
4	1282	173.100376028772	211
4	1302	174.247338535283	212
4	1302	174.247338535283	213
4	1302	174.247338535283	214
4	1302	174.247338535283	215
4	1320	177.396499287957	216
4	1320	177.396499287957	217
4	1320	177.396499287957	218
4	1320	177.396499287957	219
4	1345	179.305464210038	220
4	1345	179.305464210038	221
4	1345	179.305464210038	222
4	1345	179.305464210038	223
4	1363	181.914688091526	224
4	1363	181.914688091526	225
4	1363	181.914688091526	226
4	1363	181.914688091526	227
4	1388	185.147427098054	228
4	1388	185.147427098054	229
4	1388	185.147427098054	230
4	1388	185.147427098054	231
4	1407	186.258887519784	232
4	1407	186.258887519784	233
4	1407	186.258887519784	234
4	1407	186.258887519784	235
4	1434	187.339244044116	236
4	1434	187.339244044116	237
4	1434	187.339244044116	238
4	1434	187.339244044116	239
4	1456	190.52947265134	240
4	1456	190.52947265134	241
4	1456	190.52947265134	242
4	1456	190.52947265134	243
4	1511	201.216382955518	244
4	1511	201.216382955518	245
4	1511	201.216382955518	246
4	1511	201.216382955518	247
4	1527	203.091939622396	248
4	1527	203.091939622396	249
4	1527	203.091939622396	250
4	1527	203.091939622396	251
4	1554	206.001107630037	252
4	1554	206.001107630037	253
4	1554	206.001107630037	254
4	1554	206.001107630037	255
4	1572	208.612750211055	256
4	1572	208.612750211055	257
4	1572	208.612750211055	258
4	1572	208.612750211055	259
4	1595	209.72769520181	260
4	1595	209.72769520181	261
4	1595	209.72769520181	262
4	1595	209.72769520181	263
4	1616	211.019214348765	264
4	1616	211.019214348765	265
4	1616	211.019214348765	266
4	1616	211.019214348765	267
4	1651	218.347069274132	268
4	1651	218.347069274132	269
4	1651	218.347069274132	270
4	1651	218.347069274132	271
4	1668	221.143423918708	272
4	1668	221.143423918708	273
4	1668	221.143423918708	274
4	1668	221.143423918708	275
4	1687	223.061216306161	276
4	1687	223.061216306161	277
4	1687	223.061216306161	278
4	1687	223.061216306161	279
4	1713	226.546577781373	280
4	1713	226.546577781373	281
4	1713	226.546577781373	282
4	1713	226.546577781373	283
4	1733	229.551528795557	284
4	1733	229.551528795557	285
4	1733	229.551528795557	286
4	1733	229.551528795557	287
4	1755	233.165142338945	288
4	1755	233.165142338945	289
4	1755	233.165142338945	290
4	1755	233.165142338945	291
4	1787	239.282846728	292
4	1787	239.282846728	293
4	1787	239.282846728	294
4	1787	239.282846728	295
5	20	0.240512463835	0
5	20	0.240512463835	1
5	20	0.240512463835	2
5	41	4.011579704087	3
5	41	4.011579704087	4
5	41	4.011579704087	5
5	84	10.694469112614	6
5	84	10.694469112614	7
5	84	10.694469112614	8
5	135	16.969895306796	9
5	135	16.969895306796	10
5	135	16.969895306796	11
5	179	21.664277639424	12
5	179	21.664277639424	13
5	179	21.664277639424	14
5	226	34.699676643674	15
5	226	34.699676643674	16
5	226	34.699676643674	17
5	245	36.345442547908	18
5	245	36.345442547908	19
5	245	36.345442547908	20
5	272	38.268268951115	21
5	272	38.268268951115	22
5	272	38.268268951115	23
5	292	39.878963623086	24
5	292	39.878963623086	25
5	292	39.878963623086	26
5	329	46.475650414275	27
5	329	46.475650414275	28
5	329	46.475650414275	29
5	346	48.257087018739	30
5	346	48.257087018739	31
5	346	48.257087018739	32
5	380	57.89159654291	33
5	380	57.89159654291	34
5	380	57.89159654291	35
5	429	71.322188263323	36
5	429	71.322188263323	37
5	429	71.322188263323	38
5	499	77.846927411469	39
5	499	77.846927411469	40
5	499	77.846927411469	41
5	532	80.739069630118	42
5	532	80.739069630118	43
5	532	80.739069630118	44
5	580	86.780251409439	45
5	580	86.780251409439	46
5	580	86.780251409439	47
5	601	88.574399788852	48
5	601	88.574399788852	49
5	601	88.574399788852	50
5	667	98.346061282606	51
5	667	98.346061282606	52
5	667	98.346061282606	53
5	689	101.04218537427	54
5	689	101.04218537427	55
5	689	101.04218537427	56
5	734	103.893167211978	57
5	734	103.893167211978	58
5	734	103.893167211978	59
5	757	105.642103627066	60
5	757	105.642103627066	61
5	757	105.642103627066	62
5	796	111.778151998058	63
5	796	111.778151998058	64
5	796	111.778151998058	65
5	824	117.471802579331	66
5	824	117.471802579331	67
5	824	117.471802579331	68
5	850	119.149824289739	69
5	850	119.149824289739	70
5	850	119.149824289739	71
5	882	122.460552040553	72
5	882	122.460552040553	73
5	882	122.460552040553	74
5	908	126.781872777785	75
5	908	126.781872777785	76
5	908	126.781872777785	77
5	934	128.528302342916	78
5	934	128.528302342916	79
5	934	128.528302342916	80
5	956	131.025448436984	81
5	956	131.025448436984	82
5	956	131.025448436984	83
5	991	134.113341849114	84
5	991	134.113341849114	85
5	991	134.113341849114	86
5	1014	136.061276736682	87
5	1014	136.061276736682	88
5	1014	136.061276736682	89
5	1034	137.814982784343	90
5	1034	137.814982784343	91
5	1034	137.814982784343	92
5	1068	144.827437137066	93
5	1068	144.827437137066	94
5	1068	144.827437137066	95
5	1096	147.437114661989	96
5	1096	147.437114661989	97
5	1096	147.437114661989	98
5	1149	156.552573979473	99
5	1149	156.552573979473	100
5	1149	156.552573979473	101
5	1191	159.774794339895	102
5	1191	159.774794339895	103
5	1191	159.774794339895	104
5	1216	162.88311471358	105
5	1216	162.88311471358	106
5	1216	162.88311471358	107
5	1259	170.780997719051	108
5	1259	170.780997719051	109
5	1259	170.780997719051	110
5	1299	174.245738820654	111
5	1299	174.245738820654	112
5	1299	174.245738820654	113
5	1327	177.410143574614	114
5	1327	177.410143574614	115
5	1327	177.410143574614	116
5	1346	179.306352556054	117
5	1346	179.306352556054	118
5	1346	179.306352556054	119
5	1375	181.943357850975	120
5	1375	181.943357850975	121
5	1375	181.943357850975	122
5	1415	186.271689931438	123
5	1415	186.271689931438	124
5	1415	186.271689931438	125
5	1463	190.542734299748	126
5	1463	190.542734299748	127
5	1463	190.542734299748	128
5	1510	201.207496931219	129
5	1510	201.207496931219	130
5	1510	201.207496931219	131
5	1535	203.11495755623	132
5	1535	203.11495755623	133
5	1535	203.11495755623	134
5	1559	206.013410282774	135
5	1559	206.013410282774	136
5	1559	206.013410282774	137
5	1581	208.634763102757	138
5	1581	208.634763102757	139
5	1581	208.634763102757	140
5	1600	209.754922688819	141
5	1600	209.754922688819	142
5	1600	209.754922688819	143
5	1623	211.032178279472	144
5	1623	211.032178279472	145
5	1623	211.032178279472	146
5	1696	223.073455127713	147
5	1696	223.073455127713	148
5	1696	223.073455127713	149
5	1738	229.578671842503	150
5	1738	229.578671842503	151
5	1738	229.578671842503	152
6	23	0.250512463835	0
6	44	4.021579704087	1
6	275	38.278268951115	2
6	298	39.888963623086	3
6	332	46.485650414275	4
6	383	57.90159654291	5
6	434	71.332188263323	6
6	583	86.790251409439	7
6	760	105.652103627066	8
6	914	126.791872777785	9
6	937	128.538302342916	10
6	995	134.123341849114	11
6	1017	136.071276736682	12
6	1037	137.824982784343	13
6	1074	144.837437137066	14
6	1102	147.447114661989	15
6	1156	156.562573979473	16
6	1263	170.790997719051	17
6	1305	174.255738820654	18
6	1330	177.420143574614	19
6	1419	186.281689931438	20
6	1466	190.552734299748	21
6	1514	201.217496931219	22
6	1584	208.644763102757	23
6	1626	211.042178279472	24

