version 2
run General-2-20231008-07:03:17-16741
attr configname General
attr datetime 20231008-07:03:17
attr experiment General
attr inifile omnetpp.ini
attr iterationvars ""
attr iterationvarsf ""
attr measurement ""
attr network Network2
attr processid 16741
attr repetition 2
attr replication #2
attr resultdir results
attr runnumber 2
attr seedset 2
param Network2.node[*].transmissionTime "uniform(1s, 2s)"
param Network2.node[*].delayTime "uniform(0.01s, 0.2s)"
param Network2.node[*].processingTime exponential(0.01s)
param Network2.node[*].lossProbability 0.5

vector 0 Network2.node[0] txVector ETV
vector 1 Network2.node[1] txVector ETV
vector 2 Network2.node[2] txVector ETV
vector 3 Network2.node[6] txVector ETV
vector 4 Network2.node[4] txVector ETV
vector 5 Network2.node[3] txVector ETV
vector 6 Network2.node[5] rxVector ETV
0	1	0.092839031499	0
0	3	1.277921112972	1
0	10	3.20946197656	2
0	12	4.539796796879	3
0	19	5.744445432928	4
0	42	7.377183163558	5
0	44	8.442469667197	6
0	46	9.870591998352	7
0	48	10.967122919876	8
0	50	12.09428289162	9
0	64	13.691028199643	10
0	79	15.331434926037	11
0	95	17.183715959098	12
0	118	18.651558450674	13
0	134	20.622138765426	14
0	148	21.667817730475	15
0	159	23.499834630424	16
0	182	24.861862037117	17
0	205	25.903659743974	18
0	228	27.32479811159	19
0	230	28.933240276315	20
0	249	30.759490103014	21
0	251	32.61177906326	22
0	253	33.824546434237	23
0	263	34.824670018414	24
0	265	36.609461941309	25
0	267	38.139283117158	26
0	269	39.413120986679	27
0	280	40.439505132865	28
0	282	42.082816560073	29
0	284	43.244283126919	30
0	303	45.114429020109	31
0	305	47.049464748027	32
0	325	48.440050428054	33
0	327	49.873796343357	34
0	334	51.460970544741	35
0	352	52.668020379283	36
0	354	54.445608291328	37
0	356	56.222711295141	38
0	379	57.725490042726	39
0	390	59.552943393141	40
0	413	60.941277571041	41
0	432	62.37249147498	42
0	455	64.164821691364	43
0	478	65.9208346985	44
0	480	67.775954365982	45
0	482	69.156746946993	46
0	502	70.335056772941	47
0	504	72.173959370489	48
0	519	73.635698273564	49
0	539	75.06010763838	50
0	541	76.943629327016	51
0	564	78.106968596829	52
0	566	79.982237411681	53
0	568	81.933747563296	54
0	578	83.786010489584	55
0	580	84.950789112383	56
0	582	86.84395529774	57
0	584	88.668845784403	58
0	591	90.195484208893	59
0	593	91.886344257994	60
0	595	93.135913945986	61
0	597	94.278909175675	62
0	607	95.410188398342	63
0	622	96.984634740529	64
0	645	98.272269999394	65
0	668	99.7847807978	66
0	670	100.854441394117	67
0	693	102.789594955063	68
0	716	104.51148596827	69
0	736	106.449399082941	70
0	751	107.877939362564	71
0	753	109.075939253458	72
0	755	110.277838756117	73
0	765	112.18489818859	74
0	775	113.67435166102	75
0	777	114.973872929598	76
0	796	116.508615920805	77
0	798	117.600252339403	78
0	800	118.941462295149	79
0	823	120.161763949572	80
0	830	121.870669494635	81
0	832	123.44267831279	82
0	834	124.815098831682	83
0	836	126.724628742338	84
0	852	128.111599963178	85
0	862	129.850470813942	86
0	885	131.591172722421	87
0	900	133.113930779762	88
0	910	134.1750845439	89
0	933	135.800873158752	90
0	935	137.16089947966	91
0	937	138.19798727708	92
0	939	139.843967808895	93
0	946	141.218627968356	94
0	969	143.131305122068	95
0	988	144.26481050441	96
0	990	145.961431622523	97
0	992	147.349070671265	98
0	1015	148.400127820455	99
0	1017	150.069164996984	100
0	1036	151.098129974463	101
0	1043	152.404047121079	102
0	1045	153.668586731906	103
0	1060	154.947913985484	104
0	1072	156.45416882147	105
0	1074	157.744627091586	106
0	1076	159.054024375993	107
0	1078	160.296983467899	108
0	1085	162.25067501191	109
0	1101	163.460272430693	110
0	1103	164.695709152631	111
0	1105	166.639376492025	112
0	1107	168.429898529332	113
0	1122	169.8581039163	114
0	1142	171.733525255713	115
0	1161	173.411468695169	116
0	1180	175.174668917916	117
0	1203	176.514408062929	118
0	1219	177.717299322383	119
0	1242	179.01895439906	120
0	1265	180.876730728447	121
0	1267	182.34347751948	122
0	1269	183.549693942787	123
0	1292	184.746044565709	124
0	1294	185.847154564708	125
0	1301	187.436534209195	126
0	1316	188.461577860424	127
0	1318	189.752693983046	128
0	1320	190.858083852585	129
0	1339	192.713626830624	130
0	1362	194.548517325446	131
0	1364	195.667465265626	132
0	1366	197.65572050984	133
0	1368	199.28673192325	134
0	1391	200.991606775689	135
0	1393	202.20484858171	136
0	1413	203.573840623739	137
0	1415	205.107058844081	138
0	1417	207.063598902914	139
0	1440	208.941779056349	140
0	1442	209.988908736984	141
0	1465	211.588308811438	142
0	1481	213.161853174231	143
0	1497	215.155129747716	144
0	1499	216.368088537379	145
0	1518	217.563549599162	146
0	1520	219.464247554092	147
0	1522	220.481388316972	148
0	1524	222.429013290226	149
0	1526	223.516519733721	150
0	1533	224.592019443882	151
0	1544	225.612168379377	152
0	1567	227.185504137322	153
0	1569	228.739907042373	154
0	1589	230.524096830299	155
0	1591	232.364441625558	156
0	1598	233.59368456506	157
0	1600	235.187640631821	158
0	1602	236.8602630275	159
0	1604	238.275006111495	160
0	1606	239.554106191283	161
1	5	1.317434556699	0
1	5	1.317434556699	1
1	5	1.317434556699	2
1	5	1.317434556699	3
1	14	4.55945347053	4
1	14	4.55945347053	5
1	14	4.55945347053	6
1	14	4.55945347053	7
1	21	5.771495383869	8
1	21	5.771495383869	9
1	21	5.771495383869	10
1	21	5.771495383869	11
1	52	12.106844880754	12
1	52	12.106844880754	13
1	52	12.106844880754	14
1	52	12.106844880754	15
1	66	13.70762667449	16
1	66	13.70762667449	17
1	66	13.70762667449	18
1	66	13.70762667449	19
1	81	15.348558753671	20
1	81	15.348558753671	21
1	81	15.348558753671	22
1	81	15.348558753671	23
1	97	17.196920398436	24
1	97	17.196920398436	25
1	97	17.196920398436	26
1	97	17.196920398436	27
1	120	18.677665755677	28
1	120	18.677665755677	29
1	120	18.677665755677	30
1	120	18.677665755677	31
1	136	20.67297485454	32
1	136	20.67297485454	33
1	136	20.67297485454	34
1	136	20.67297485454	35
1	150	21.691164130109	36
1	150	21.691164130109	37
1	150	21.691164130109	38
1	150	21.691164130109	39
1	161	23.530896616936	40
1	161	23.530896616936	41
1	161	23.530896616936	42
1	161	23.530896616936	43
1	184	24.885271414336	44
1	184	24.885271414336	45
1	184	24.885271414336	46
1	184	24.885271414336	47
1	207	25.922797183065	48
1	207	25.922797183065	49
1	207	25.922797183065	50
1	207	25.922797183065	51
1	232	28.953010326904	52
1	232	28.953010326904	53
1	232	28.953010326904	54
1	232	28.953010326904	55
1	255	33.835521418886	56
1	255	33.835521418886	57
1	255	33.835521418886	58
1	255	33.835521418886	59
1	271	39.44350080629	60
1	271	39.44350080629	61
1	271	39.44350080629	62
1	271	39.44350080629	63
1	286	43.256734493566	64
1	286	43.256734493566	65
1	286	43.256734493566	66
1	286	43.256734493566	67
1	307	47.083617305868	68
1	307	47.083617305868	69
1	307	47.083617305868	70
1	307	47.083617305868	71
1	329	49.932059811453	72
1	329	49.932059811453	73
1	329	49.932059811453	74
1	329	49.932059811453	75
1	336	51.476510786912	76
1	336	51.476510786912	77
1	336	51.476510786912	78
1	336	51.476510786912	79
1	358	56.264118320132	80
1	358	56.264118320132	81
1	358	56.264118320132	82
1	358	56.264118320132	83
1	381	57.743248763422	84
1	381	57.743248763422	85
1	381	57.743248763422	86
1	381	57.743248763422	87
1	392	59.588967006148	88
1	392	59.588967006148	89
1	392	59.588967006148	90
1	392	59.588967006148	91
1	415	60.966539252966	92
1	415	60.966539252966	93
1	415	60.966539252966	94
1	415	60.966539252966	95
1	434	62.386783956565	96
1	434	62.386783956565	97
1	434	62.386783956565	98
1	434	62.386783956565	99
1	457	64.20427652148	100
1	457	64.20427652148	101
1	457	64.20427652148	102
1	457	64.20427652148	103
1	484	69.181963938831	104
1	484	69.181963938831	105
1	484	69.181963938831	106
1	484	69.181963938831	107
1	506	72.185303618541	108
1	506	72.185303618541	109
1	506	72.185303618541	110
1	506	72.185303618541	111
1	521	73.65835444446	112
1	521	73.65835444446	113
1	521	73.65835444446	114
1	521	73.65835444446	115
1	543	76.966651173366	116
1	543	76.966651173366	117
1	543	76.966651173366	118
1	543	76.966651173366	119
1	570	81.953990183158	120
1	570	81.953990183158	121
1	570	81.953990183158	122
1	570	81.953990183158	123
1	586	88.685071725818	124
1	586	88.685071725818	125
1	586	88.685071725818	126
1	586	88.685071725818	127
1	599	94.317851565855	128
1	599	94.317851565855	129
1	599	94.317851565855	130
1	599	94.317851565855	131
1	609	95.425572305557	132
1	609	95.425572305557	133
1	609	95.425572305557	134
1	609	95.425572305557	135
1	624	97.028781558994	136
1	624	97.028781558994	137
1	624	97.028781558994	138
1	624	97.028781558994	139
1	647	98.286228193605	140
1	647	98.286228193605	141
1	647	98.286228193605	142
1	647	98.286228193605	143
1	672	100.866749342047	144
1	672	100.866749342047	145
1	672	100.866749342047	146
1	672	100.866749342047	147
1	695	102.818990418055	148
1	695	102.818990418055	149
1	695	102.818990418055	150
1	695	102.818990418055	151
1	718	104.522929601112	152
1	718	104.522929601112	153
1	718	104.522929601112	154
1	718	104.522929601112	155
1	738	106.469314870166	156
1	738	106.469314870166	157
1	738	106.469314870166	158
1	738	106.469314870166	159
1	757	110.296510749754	160
1	757	110.296510749754	161
1	757	110.296510749754	162
1	757	110.296510749754	163
1	767	112.207899556451	164
1	767	112.207899556451	165
1	767	112.207899556451	166
1	767	112.207899556451	167
1	779	114.999278619731	168
1	779	114.999278619731	169
1	779	114.999278619731	170
1	779	114.999278619731	171
1	802	118.959737253398	172
1	802	118.959737253398	173
1	802	118.959737253398	174
1	802	118.959737253398	175
1	825	120.17947086078	176
1	825	120.17947086078	177
1	825	120.17947086078	178
1	825	120.17947086078	179
1	838	126.752722837495	180
1	838	126.752722837495	181
1	838	126.752722837495	182
1	838	126.752722837495	183
1	854	128.141361652438	184
1	854	128.141361652438	185
1	854	128.141361652438	186
1	854	128.141361652438	187
1	864	129.863006858514	188
1	864	129.863006858514	189
1	864	129.863006858514	190
1	864	129.863006858514	191
1	887	131.602385008828	192
1	887	131.602385008828	193
1	887	131.602385008828	194
1	887	131.602385008828	195
1	902	133.128595222219	196
1	902	133.128595222219	197
1	902	133.128595222219	198
1	902	133.128595222219	199
1	912	134.186779914396	200
1	912	134.186779914396	201
1	912	134.186779914396	202
1	912	134.186779914396	203
1	941	139.855027932674	204
1	941	139.855027932674	205
1	941	139.855027932674	206
1	941	139.855027932674	207
1	948	141.237067126195	208
1	948	141.237067126195	209
1	948	141.237067126195	210
1	948	141.237067126195	211
1	971	143.141594350418	212
1	971	143.141594350418	213
1	971	143.141594350418	214
1	971	143.141594350418	215
1	994	147.369966441234	216
1	994	147.369966441234	217
1	994	147.369966441234	218
1	994	147.369966441234	219
1	1019	150.093504076124	220
1	1019	150.093504076124	221
1	1019	150.093504076124	222
1	1019	150.093504076124	223
1	1038	151.120486739904	224
1	1038	151.120486739904	225
1	1038	151.120486739904	226
1	1038	151.120486739904	227
1	1047	153.679961308895	228
1	1047	153.679961308895	229
1	1047	153.679961308895	230
1	1047	153.679961308895	231
1	1062	154.976947515791	232
1	1062	154.976947515791	233
1	1062	154.976947515791	234
1	1062	154.976947515791	235
1	1080	160.312048655838	236
1	1080	160.312048655838	237
1	1080	160.312048655838	238
1	1080	160.312048655838	239
1	1087	162.275498206911	240
1	1087	162.275498206911	241
1	1087	162.275498206911	242
1	1087	162.275498206911	243
1	1109	168.448054925113	244
1	1109	168.448054925113	245
1	1109	168.448054925113	246
1	1109	168.448054925113	247
1	1124	169.871722023095	248
1	1124	169.871722023095	249
1	1124	169.871722023095	250
1	1124	169.871722023095	251
1	1144	171.747104253656	252
1	1144	171.747104253656	253
1	1144	171.747104253656	254
1	1144	171.747104253656	255
1	1163	173.427200043177	256
1	1163	173.427200043177	257
1	1163	173.427200043177	258
1	1163	173.427200043177	259
1	1182	175.218889034404	260
1	1182	175.218889034404	261
1	1182	175.218889034404	262
1	1182	175.218889034404	263
1	1205	176.558006555482	264
1	1205	176.558006555482	265
1	1205	176.558006555482	266
1	1205	176.558006555482	267
1	1221	177.743846008494	268
1	1221	177.743846008494	269
1	1221	177.743846008494	270
1	1221	177.743846008494	271
1	1244	179.029499765994	272
1	1244	179.029499765994	273
1	1244	179.029499765994	274
1	1244	179.029499765994	275
1	1271	183.572313264385	276
1	1271	183.572313264385	277
1	1271	183.572313264385	278
1	1271	183.572313264385	279
1	1296	185.870207478864	280
1	1296	185.870207478864	281
1	1296	185.870207478864	282
1	1296	185.870207478864	283
1	1303	187.460745750498	284
1	1303	187.460745750498	285
1	1303	187.460745750498	286
1	1303	187.460745750498	287
1	1322	190.870317742675	288
1	1322	190.870317742675	289
1	1322	190.870317742675	290
1	1322	190.870317742675	291
1	1341	192.76950965921	292
1	1341	192.76950965921	293
1	1341	192.76950965921	294
1	1341	192.76950965921	295
1	1370	199.302366067419	296
1	1370	199.302366067419	297
1	1370	199.302366067419	298
1	1370	199.302366067419	299
1	1395	202.233661473892	300
1	1395	202.233661473892	301
1	1395	202.233661473892	302
1	1395	202.233661473892	303
1	1419	207.084418250639	304
1	1419	207.084418250639	305
1	1419	207.084418250639	306
1	1419	207.084418250639	307
1	1444	210.005485164852	308
1	1444	210.005485164852	309
1	1444	210.005485164852	310
1	1444	210.005485164852	311
1	1467	211.612580538645	312
1	1467	211.612580538645	313
1	1467	211.612580538645	314
1	1467	211.612580538645	315
1	1483	213.181776831818	316
1	1483	213.181776831818	317
1	1483	213.181776831818	318
1	1483	213.181776831818	319
1	1501	216.38201496245	320
1	1501	216.38201496245	321
1	1501	216.38201496245	322
1	1501	216.38201496245	323
1	1528	223.555037662332	324
1	1528	223.555037662332	325
1	1528	223.555037662332	326
1	1528	223.555037662332	327
1	1535	224.610020913941	328
1	1535	224.610020913941	329
1	1535	224.610020913941	330
1	1535	224.610020913941	331
1	1546	225.646305992105	332
1	1546	225.646305992105	333
1	1546	225.646305992105	334
1	1546	225.646305992105	335
1	1571	228.759138818173	336
1	1571	228.759138818173	337
1	1571	228.759138818173	338
1	1571	228.759138818173	339
1	1593	232.377705199315	340
1	1593	232.377705199315	341
1	1593	232.377705199315	342
1	1593	232.377705199315	343
1	1608	239.574442145104	344
1	1608	239.574442145104	345
1	1608	239.574442145104	346
1	1608	239.574442145104	347
2	26	5.78294078661	0
2	26	5.78294078661	1
2	26	5.78294078661	2
2	26	5.78294078661	3
2	71	13.728505231839	4
2	71	13.728505231839	5
2	71	13.728505231839	6
2	71	13.728505231839	7
2	90	15.421558993013	8
2	90	15.421558993013	9
2	90	15.421558993013	10
2	90	15.421558993013	11
2	104	17.214777588986	12
2	104	17.214777588986	13
2	104	17.214777588986	14
2	104	17.214777588986	15
2	126	18.699925963251	16
2	126	18.699925963251	17
2	126	18.699925963251	18
2	126	18.699925963251	19
2	174	23.577573510458	20
2	174	23.577573510458	21
2	174	23.577573510458	22
2	174	23.577573510458	23
2	189	24.911539906939	24
2	189	24.911539906939	25
2	189	24.911539906939	26
2	189	24.911539906939	27
2	217	25.963857056367	28
2	217	25.963857056367	29
2	217	25.963857056367	30
2	217	25.963857056367	31
2	244	28.984791987763	32
2	244	28.984791987763	33
2	244	28.984791987763	34
2	244	28.984791987763	35
2	291	43.267263103952	36
2	291	43.267263103952	37
2	291	43.267263103952	38
2	291	43.267263103952	39
2	312	47.094296493962	40
2	312	47.094296493962	41
2	312	47.094296493962	42
2	312	47.094296493962	43
2	368	56.292352892335	44
2	368	56.292352892335	45
2	368	56.292352892335	46
2	368	56.292352892335	47
2	398	59.613652336218	48
2	398	59.613652336218	49
2	398	59.613652336218	50
2	398	59.613652336218	51
2	420	61.002597973474	52
2	420	61.002597973474	53
2	420	61.002597973474	54
2	420	61.002597973474	55
2	440	62.398121768738	56
2	440	62.398121768738	57
2	440	62.398121768738	58
2	440	62.398121768738	59
2	469	64.277786074269	60
2	469	64.277786074269	61
2	469	64.277786074269	62
2	469	64.277786074269	63
2	497	69.244333729262	64
2	497	69.244333729262	65
2	497	69.244333729262	66
2	497	69.244333729262	67
2	512	72.200190729185	68
2	512	72.200190729185	69
2	512	72.200190729185	70
2	512	72.200190729185	71
2	526	73.680932773083	72
2	526	73.680932773083	73
2	526	73.680932773083	74
2	526	73.680932773083	75
2	555	77.049641213556	76
2	555	77.049641213556	77
2	555	77.049641213556	78
2	555	77.049641213556	79
2	633	97.062417932794	80
2	633	97.062417932794	81
2	633	97.062417932794	82
2	633	97.062417932794	83
2	652	98.296323146716	84
2	652	98.296323146716	85
2	652	98.296323146716	86
2	652	98.296323146716	87
2	681	100.896013757021	88
2	681	100.896013757021	89
2	681	100.896013757021	90
2	681	100.896013757021	91
2	701	102.838434473299	92
2	701	102.838434473299	93
2	701	102.838434473299	94
2	701	102.838434473299	95
2	727	104.554008881409	96
2	727	104.554008881409	97
2	727	104.554008881409	98
2	727	104.554008881409	99
2	743	106.480369787325	100
2	743	106.480369787325	101
2	743	106.480369787325	102
2	743	106.480369787325	103
2	786	115.018367217427	104
2	786	115.018367217427	105
2	786	115.018367217427	106
2	786	115.018367217427	107
2	808	118.975865084981	108
2	808	118.975865084981	109
2	808	118.975865084981	110
2	808	118.975865084981	111
2	844	126.766345087831	112
2	844	126.766345087831	113
2	844	126.766345087831	114
2	844	126.766345087831	115
2	871	129.8752952337	116
2	871	129.8752952337	117
2	871	129.8752952337	118
2	871	129.8752952337	119
2	892	131.614716632282	120
2	892	131.614716632282	121
2	892	131.614716632282	122
2	892	131.614716632282	123
2	928	134.246709353965	124
2	928	134.246709353965	125
2	928	134.246709353965	126
2	928	134.246709353965	127
2	953	141.247591153802	128
2	953	141.247591153802	129
2	953	141.247591153802	130
2	953	141.247591153802	131
2	976	143.159391790759	132
2	976	143.159391790759	133
2	976	143.159391790759	134
2	976	143.159391790759	135
2	1002	147.396292696356	136
2	1002	147.396292696356	137
2	1002	147.396292696356	138
2	1002	147.396292696356	139
2	1028	150.124078978197	140
2	1028	150.124078978197	141
2	1028	150.124078978197	142
2	1028	150.124078978197	143
2	1052	153.690621906754	144
2	1052	153.690621906754	145
2	1052	153.690621906754	146
2	1052	153.690621906754	147
2	1067	154.987678496856	148
2	1067	154.987678496856	149
2	1067	154.987678496856	150
2	1067	154.987678496856	151
2	1093	162.299497549574	152
2	1093	162.299497549574	153
2	1093	162.299497549574	154
2	1093	162.299497549574	155
2	1117	168.480997203223	156
2	1117	168.480997203223	157
2	1117	168.480997203223	158
2	1117	168.480997203223	159
2	1133	169.895981535503	160
2	1133	169.895981535503	161
2	1133	169.895981535503	162
2	1133	169.895981535503	163
2	1152	171.787447624542	164
2	1152	171.787447624542	165
2	1152	171.787447624542	166
2	1152	171.787447624542	167
2	1171	173.501895951585	168
2	1171	173.501895951585	169
2	1171	173.501895951585	170
2	1171	173.501895951585	171
2	1187	175.229985674987	172
2	1187	175.229985674987	173
2	1187	175.229985674987	174
2	1187	175.229985674987	175
2	1210	176.573537560253	176
2	1210	176.573537560253	177
2	1210	176.573537560253	178
2	1210	176.573537560253	179
2	1230	177.801726282591	180
2	1230	177.801726282591	181
2	1230	177.801726282591	182
2	1230	177.801726282591	183
2	1257	179.056015775507	184
2	1257	179.056015775507	185
2	1257	179.056015775507	186
2	1257	179.056015775507	187
2	1284	183.610683911793	188
2	1284	183.610683911793	189
2	1284	183.610683911793	190
2	1284	183.610683911793	191
2	1308	187.478742955816	192
2	1308	187.478742955816	193
2	1308	187.478742955816	194
2	1308	187.478742955816	195
2	1334	190.90518728143	196
2	1334	190.90518728143	197
2	1334	190.90518728143	198
2	1334	190.90518728143	199
2	1347	192.791594219214	200
2	1347	192.791594219214	201
2	1347	192.791594219214	202
2	1347	192.791594219214	203
2	1382	199.327387391844	204
2	1382	199.327387391844	205
2	1382	199.327387391844	206
2	1382	199.327387391844	207
2	1400	202.244665398279	208
2	1400	202.244665398279	209
2	1400	202.244665398279	210
2	1400	202.244665398279	211
2	1424	207.112165684702	212
2	1424	207.112165684702	213
2	1424	207.112165684702	214
2	1424	207.112165684702	215
2	1451	210.023516992929	216
2	1451	210.023516992929	217
2	1451	210.023516992929	218
2	1451	210.023516992929	219
2	1476	211.642616052313	220
2	1476	211.642616052313	221
2	1476	211.642616052313	222
2	1476	211.642616052313	223
2	1488	213.222106179339	224
2	1488	213.222106179339	225
2	1488	213.222106179339	226
2	1488	213.222106179339	227
2	1506	216.397821093197	228
2	1506	216.397821093197	229
2	1506	216.397821093197	230
2	1506	216.397821093197	231
2	1555	225.67015867612	232
2	1555	225.67015867612	233
2	1555	225.67015867612	234
2	1555	225.67015867612	235
2	1576	228.770415795751	236
2	1576	228.770415795751	237
2	1576	228.770415795751	238
2	1576	228.770415795751	239
2	1616	239.618089863572	240
2	1616	239.618089863572	241
2	1616	239.618089863572	242
2	1616	239.618089863572	243
3	27	5.790333546173	0
3	27	5.790333546173	1
3	58	12.121150037739	2
3	58	12.121150037739	3
3	72	13.733407881675	4
3	72	13.733407881675	5
3	103	17.211482863705	6
3	103	17.211482863705	7
3	141	20.686883693617	8
3	141	20.686883693617	9
3	179	23.591757670641	10
3	179	23.591757670641	11
3	195	24.93186371323	12
3	195	24.93186371323	13
3	225	26.000327534152	14
3	225	26.000327534152	15
3	237	28.969729393909	16
3	237	28.969729393909	17
3	260	33.846522805615	18
3	260	33.846522805615	19
3	292	43.270106988476	20
3	292	43.270106988476	21
3	342	51.493970640479	22
3	342	51.493970640479	23
3	364	56.287916434283	24
3	364	56.287916434283	25
3	402	59.618519324628	26
3	402	59.618519324628	27
3	426	61.01400663698	28
3	426	61.01400663698	29
3	441	62.400726927593	30
3	441	62.400726927593	31
3	462	64.214689115162	32
3	462	64.214689115162	33
3	511	72.197236119377	34
3	511	72.197236119377	35
3	548	76.977712288646	36
3	548	76.977712288646	37
3	575	81.964219968969	38
3	575	81.964219968969	39
3	604	94.328859423783	40
3	604	94.328859423783	41
3	638	97.074887006497	42
3	638	97.074887006497	43
3	658	98.308194705294	44
3	658	98.308194705294	45
3	687	100.909302524549	46
3	687	100.909302524549	47
3	700	102.832825384577	48
3	700	102.832825384577	49
3	748	106.502732929187	50
3	748	106.502732929187	51
3	762	110.308999080552	52
3	762	110.308999080552	53
3	772	112.229749075792	54
3	772	112.229749075792	55
3	784	115.012363502985	56
3	784	115.012363502985	57
3	807	118.973314766719	58
3	807	118.973314766719	59
3	859	128.228873676391	60
3	859	128.228873676391	61
3	869	129.874791222085	62
3	869	129.874791222085	63
3	893	131.617495674356	64
3	893	131.617495674356	65
3	907	133.146034280061	66
3	907	133.146034280061	67
3	921	134.224980500595	68
3	921	134.224980500595	69
3	960	141.257833514094	70
3	960	141.257833514094	71
3	977	143.169292129038	72
3	977	143.169292129038	73
3	999	147.384012692035	74
3	999	147.384012692035	75
3	1033	150.146619549671	76
3	1033	150.146619549671	77
3	1053	153.698547276404	78
3	1053	153.698547276404	79
3	1114	168.467860881892	80
3	1114	168.467860881892	81
3	1149	171.763056516191	82
3	1149	171.763056516191	83
3	1168	173.482507754382	84
3	1168	173.482507754382	85
3	1200	175.267552686978	86
3	1200	175.267552686978	87
3	1235	177.813057598848	88
3	1235	177.813057598848	89
3	1249	179.041001219164	90
3	1249	179.041001219164	91
3	1289	183.632452029697	92
3	1289	183.632452029697	93
3	1313	187.498470464675	94
3	1313	187.498470464675	95
3	1327	190.883459539248	96
3	1327	190.883459539248	97
3	1346	192.784464343388	98
3	1346	192.784464343388	99
3	1375	199.315772513621	100
3	1375	199.315772513621	101
3	1425	207.119327256207	102
3	1425	207.119327256207	103
3	1450	210.016243541801	104
3	1450	210.016243541801	105
3	1507	216.398884387208	106
3	1507	216.398884387208	107
3	1560	225.682864468975	108
3	1560	225.682864468975	109
3	1613	239.602646574457	110
3	1613	239.602646574457	111
4	32	5.79593156191	0
4	32	5.79593156191	1
4	32	5.79593156191	2
4	110	17.222990402478	3
4	110	17.222990402478	4
4	110	17.222990402478	5
4	170	23.563252258413	6
4	170	23.563252258413	7
4	170	23.563252258413	8
4	196	24.93237166711	9
4	196	24.93237166711	10
4	196	24.93237166711	11
4	216	25.963401261546	12
4	216	25.963401261546	13
4	216	25.963401261546	14
4	321	47.12342730736	15
4	321	47.12342730736	16
4	321	47.12342730736	17
4	348	51.505392061785	18
4	348	51.505392061785	19
4	348	51.505392061785	20
4	375	56.314931801312	21
4	375	56.314931801312	22
4	375	56.314931801312	23
4	409	59.648251616453	24
4	409	59.648251616453	25
4	409	59.648251616453	26
4	451	62.412818355208	27
4	451	62.412818355208	28
4	451	62.412818355208	29
4	474	64.289395703042	30
4	474	64.289395703042	31
4	474	64.289395703042	32
4	493	69.20779496361	33
4	493	69.20779496361	34
4	493	69.20779496361	35
4	535	73.707523889315	36
4	535	73.707523889315	37
4	535	73.707523889315	38
4	560	77.094891064338	39
4	560	77.094891064338	40
4	560	77.094891064338	41
4	618	95.470893001196	42
4	618	95.470893001196	43
4	618	95.470893001196	44
4	639	97.082894634282	45
4	639	97.082894634282	46
4	639	97.082894634282	47
4	662	98.31055404125	48
4	662	98.31055404125	49
4	662	98.31055404125	50
4	686	100.907259247356	51
4	686	100.907259247356	52
4	686	100.907259247356	53
4	708	102.84845331762	54
4	708	102.84845331762	55
4	708	102.84845331762	56
4	732	104.56432690524	57
4	732	104.56432690524	58
4	732	104.56432690524	59
4	819	119.003945283987	60
4	819	119.003945283987	61
4	819	119.003945283987	62
4	881	129.894383370591	63
4	881	129.894383370591	64
4	881	129.894383370591	65
4	922	134.230737006384	66
4	922	134.230737006384	67
4	922	134.230737006384	68
4	959	141.257721709292	69
4	959	141.257721709292	70
4	959	141.257721709292	71
4	984	143.20232375202	72
4	984	143.20232375202	73
4	984	143.20232375202	74
4	1007	147.424735924542	75
4	1007	147.424735924542	76
4	1007	147.424735924542	77
4	1134	169.897793816532	78
4	1134	169.897793816532	79
4	1134	169.897793816532	80
4	1176	173.514810298826	81
4	1176	173.514810298826	82
4	1176	173.514810298826	83
4	1193	175.250956341744	84
4	1193	175.250956341744	85
4	1193	175.250956341744	86
4	1238	177.850478030731	87
4	1238	177.850478030731	88
4	1238	177.850478030731	89
4	1256	179.055735588553	90
4	1256	179.055735588553	91
4	1256	179.055735588553	92
4	1280	183.597996616648	93
4	1280	183.597996616648	94
4	1280	183.597996616648	95
4	1354	192.802211633267	96
4	1354	192.802211633267	97
4	1354	192.802211633267	98
4	1387	199.339078825781	99
4	1387	199.339078825781	100
4	1387	199.339078825781	101
4	1406	202.261185609014	102
4	1406	202.261185609014	103
4	1406	202.261185609014	104
4	1430	207.124113909042	105
4	1430	207.124113909042	106
4	1430	207.124113909042	107
4	1461	210.049338687727	108
4	1461	210.049338687727	109
4	1461	210.049338687727	110
4	1563	225.6947099894	111
4	1563	225.6947099894	112
4	1563	225.6947099894	113
4	1581	228.784640341891	114
4	1581	228.784640341891	115
4	1581	228.784640341891	116
5	35	5.800841934904	0
5	35	5.800841934904	1
5	35	5.800841934904	2
5	57	12.119333420839	3
5	57	12.119333420839	4
5	57	12.119333420839	5
5	86	15.408565046759	6
5	86	15.408565046759	7
5	86	15.408565046759	8
5	102	17.207777011369	9
5	102	17.207777011369	10
5	102	17.207777011369	11
5	125	18.694224688818	12
5	125	18.694224688818	13
5	125	18.694224688818	14
5	142	20.689986656915	15
5	142	20.689986656915	16
5	142	20.689986656915	17
5	155	21.70129515817	18
5	155	21.70129515817	19
5	155	21.70129515817	20
5	166	23.547892433653	21
5	166	23.547892433653	22
5	166	23.547892433653	23
5	194	24.923408952953	24
5	194	24.923408952953	25
5	194	24.923408952953	26
5	212	25.937395459536	27
5	212	25.937395459536	28
5	212	25.937395459536	29
5	238	28.971957022434	30
5	238	28.971957022434	31
5	238	28.971957022434	32
5	276	39.455069805008	33
5	276	39.455069805008	34
5	276	39.455069805008	35
5	293	43.27649682078	36
5	293	43.27649682078	37
5	293	43.27649682078	38
5	317	47.110275349839	39
5	317	47.110275349839	40
5	317	47.110275349839	41
5	341	51.493595780815	42
5	341	51.493595780815	43
5	341	51.493595780815	44
5	363	56.280685665692	45
5	363	56.280685665692	46
5	363	56.280685665692	47
5	386	57.771700219299	48
5	386	57.771700219299	49
5	386	57.771700219299	50
5	397	59.604790018787	51
5	397	59.604790018787	52
5	397	59.604790018787	53
5	421	61.004861091017	54
5	421	61.004861091017	55
5	421	61.004861091017	56
5	439	62.397555583909	57
5	439	62.397555583909	58
5	439	62.397555583909	59
5	465	64.257941878376	60
5	465	64.257941878376	61
5	465	64.257941878376	62
5	489	69.194967970655	63
5	489	69.194967970655	64
5	489	69.194967970655	65
5	531	73.696144537033	66
5	531	73.696144537033	67
5	531	73.696144537033	68
5	551	76.994667202173	69
5	551	76.994667202173	70
5	551	76.994667202173	71
5	614	95.439586890567	72
5	614	95.439586890567	73
5	614	95.439586890567	74
5	629	97.04252686228	75
5	629	97.04252686228	76
5	629	97.04252686228	77
5	653	98.299152436874	78
5	653	98.299152436874	79
5	653	98.299152436874	80
5	677	100.882105107181	81
5	677	100.882105107181	82
5	677	100.882105107181	83
5	709	102.848967364589	84
5	709	102.848967364589	85
5	709	102.848967364589	86
5	723	104.539962827321	87
5	723	104.539962827321	88
5	723	104.539962827321	89
5	785	115.017783937274	90
5	785	115.017783937274	91
5	785	115.017783937274	92
5	815	118.987317698463	93
5	815	118.987317698463	94
5	815	118.987317698463	95
5	843	126.764974832159	96
5	843	126.764974832159	97
5	843	126.764974832159	98
5	870	129.874803299974	99
5	870	129.874803299974	100
5	870	129.874803299974	101
5	917	134.201419892968	102
5	917	134.201419892968	103
5	917	134.201419892968	104
5	954	141.251826750033	105
5	954	141.251826750033	106
5	954	141.251826750033	107
5	1008	147.432064914809	108
5	1008	147.432064914809	109
5	1008	147.432064914809	110
5	1024	150.109143177137	111
5	1024	150.109143177137	112
5	1024	150.109143177137	113
5	1092	162.297610271706	114
5	1092	162.297610271706	115
5	1092	162.297610271706	116
5	1129	169.883348717218	117
5	1129	169.883348717218	118
5	1129	169.883348717218	119
5	1157	171.801068969853	120
5	1157	171.801068969853	121
5	1157	171.801068969853	122
5	1192	175.24130808893	123
5	1192	175.24130808893	124
5	1192	175.24130808893	125
5	1215	176.589935582149	126
5	1215	176.589935582149	127
5	1215	176.589935582149	128
5	1226	177.760067546912	129
5	1226	177.760067546912	130
5	1226	177.760067546912	131
5	1250	179.045344507261	132
5	1250	179.045344507261	133
5	1250	179.045344507261	134
5	1276	183.584200219798	135
5	1276	183.584200219798	136
5	1276	183.584200219798	137
5	1328	190.889804821012	138
5	1328	190.889804821012	139
5	1328	190.889804821012	140
5	1355	192.808214389107	141
5	1355	192.808214389107	142
5	1355	192.808214389107	143
5	1376	199.317263709146	144
5	1376	199.317263709146	145
5	1376	199.317263709146	146
5	1405	202.256436465219	147
5	1405	202.256436465219	148
5	1405	202.256436465219	149
5	1436	207.134321699032	150
5	1436	207.134321699032	151
5	1436	207.134321699032	152
5	1449	210.016006070436	153
5	1449	210.016006070436	154
5	1449	210.016006070436	155
5	1472	211.624569812353	156
5	1472	211.624569812353	157
5	1472	211.624569812353	158
5	1493	213.247761521942	159
5	1493	213.247761521942	160
5	1493	213.247761521942	161
5	1514	216.422622645046	162
5	1514	216.422622645046	163
5	1514	216.422622645046	164
5	1540	224.623445897906	165
5	1540	224.623445897906	166
5	1540	224.623445897906	167
5	1551	225.658897650372	168
5	1551	225.658897650372	169
5	1551	225.658897650372	170
5	1585	228.799461554209	171
5	1585	228.799461554209	172
5	1585	228.799461554209	173
6	117	17.232990402478	0
6	173	23.573252258413	1
6	204	24.94237166711	2
6	324	47.13342730736	3
6	412	59.658251616453	4
6	496	69.21779496361	5
6	644	97.092894634282	6
6	667	98.32055404125	7
6	690	100.917259247356	8
6	735	104.57432690524	9
6	987	143.21232375202	10
6	1011	147.434735924542	11
6	1179	173.524810298826	12
6	1241	177.860478030731	13
6	1260	179.065735588553	14
6	1283	183.607996616648	15
6	1412	202.271185609014	16
6	1464	210.059338687727	17
6	1566	225.7047099894	18

