version 2
run General-1-20231008-06:23:24-15638
attr configname General
attr datetime 20231008-06:23:24
attr experiment General
attr inifile omnetpp.ini
attr iterationvars ""
attr iterationvarsf ""
attr measurement ""
attr network Network1
attr processid 15638
attr repetition 1
attr replication #1
attr resultdir results
attr runnumber 1
attr seedset 1
param Network1.node[*].transmissionTime "uniform(1s, 2s)"
param Network1.node[*].delayTime "uniform(0.01s, 0.2s)"
param Network1.node[*].processingTime exponential(0.01s)
param Network1.node[*].lossProbability 0.25
param Reliability.node[*].transmissionTime "uniform(1s, 2s)"
param Reliability.node[*].delayTime "uniform(0.01s, 0.2s)"
param Reliability.node[*].processingTime exponential(0.01s)
param Reliability.node[*].lossProbability 0.0

vector 0 Network1.node[0] txVector ETV
vector 1 Network1.node[1] txVector ETV
vector 2 Network1.node[3] txVector ETV
vector 3 Network1.node[2] txVector ETV
vector 4 Network1.node[4] txVector ETV
vector 5 Network1.node[5] rxVector ETV
0	1	0.089234179703	0
0	11	2.086418987836	1
0	13	3.482999713977	2
0	31	4.870910454194	3
0	49	6.784872476595	4
0	67	8.649892721909	5
0	85	9.847443615437	6
0	103	11.293578116108	7
0	105	13.210439450458	8
0	123	15.120887830273	9
0	141	17.070825963865	10
0	143	18.611614155468	11
0	145	20.059594338412	12
0	163	21.951730206959	13
0	181	23.599479602767	14
0	199	25.386431076681	15
0	217	26.53936089913	16
0	235	28.090685837787	17
0	241	29.139990083525	18
0	243	30.536303371774	19
0	245	31.643668680103	20
0	247	33.153478958295	21
0	261	34.255614190712	22
0	279	35.825680848561	23
0	297	37.253493483761	24
0	299	38.907817255357	25
0	301	40.037586868159	26
0	319	41.331946340041	27
0	321	43.07290189725	28
0	339	44.3715821401	29
0	357	45.826864610079	30
0	363	47.591106222595	31
0	373	48.68652546697	32
0	391	50.617538395456	33
0	393	52.304596694305	34
0	395	53.731407538175	35
0	413	55.459964934855	36
0	431	56.484066560052	37
0	433	57.496779226351	38
0	451	58.956324507135	39
0	469	60.310909193593	40
0	487	62.260952500745	41
0	493	63.452212770821	42
0	511	64.46808575059	43
0	529	65.677578631441	44
0	547	66.682241944249	45
0	565	67.850072743024	46
0	579	69.36766673031	47
0	597	70.411939027605	48
0	599	71.456356969548	49
0	609	72.73757386103	50
0	627	74.2598604291	51
0	629	75.700688751067	52
0	635	77.180966934075	53
0	637	78.686430864853	54
0	655	80.359578143924	55
0	673	82.040018210772	56
0	691	83.432958478227	57
0	709	85.156323230013	58
0	727	86.828657789508	59
0	745	88.240012197176	60
0	763	89.817291643823	61
0	781	91.087172935138	62
0	799	92.812153056151	63
0	817	94.031677145165	64
0	835	95.4886550525	65
0	841	97.306423441393	66
0	843	99.041777136389	67
0	845	100.645271783814	68
0	847	102.325290930111	69
0	865	103.909250718428	70
0	879	105.580182731038	71
0	897	107.299272091247	72
0	899	108.377050964979	73
0	901	109.992355196856	74
0	919	111.830159064502	75
0	921	113.319858673847	76
0	939	115.209233422185	77
0	957	116.981548755084	78
0	975	118.125491601302	79
0	993	120.020188209953	80
0	1011	121.594532432387	81
0	1029	123.547653436547	82
0	1035	124.686368056692	83
0	1053	126.269806587722	84
0	1055	127.463267158836	85
0	1073	128.531698219132	86
0	1091	129.587991888289	87
0	1109	130.699891646745	88
0	1127	131.839522901576	89
0	1145	133.814514211265	90
0	1163	135.437102786384	91
0	1181	136.684023271899	92
0	1187	138.660504254864	93
0	1189	139.84309854347	94
0	1191	141.384391121685	95
0	1193	142.657089989285	96
0	1199	144.150358256537	97
0	1217	146.071055601004	98
0	1235	147.544892704466	99
0	1253	149.479847331185	100
0	1271	151.292803079475	101
0	1281	153.083783240876	102
0	1299	154.159952462538	103
0	1317	155.766394236012	104
0	1319	156.835790199813	105
0	1337	158.367248522005	106
0	1339	160.349304109466	107
0	1357	162.277361747463	108
0	1375	163.53865990986	109
0	1381	165.136257833455	110
0	1399	166.841142139051	111
0	1401	168.042449350588	112
0	1419	169.164603424611	113
0	1421	170.426595407192	114
0	1439	171.739919023475	115
0	1457	172.865415107811	116
0	1463	174.678212822534	117
0	1481	175.806726241371	118
0	1483	177.364804784654	119
0	1501	178.427313918134	120
0	1503	179.959732574995	121
0	1521	181.796181251646	122
0	1527	183.689082144645	123
0	1529	185.250914049453	124
0	1531	186.385067574332	125
0	1549	188.093884874253	126
0	1551	189.745430005134	127
0	1569	190.88913667889	128
0	1587	192.414008848254	129
0	1605	193.476719033324	130
0	1623	194.723712386914	131
0	1641	196.15626471385	132
0	1659	197.905462217868	133
0	1665	199.294078644949	134
0	1667	200.851016291768	135
0	1685	202.661463238184	136
0	1703	204.507959604381	137
0	1721	206.321693847539	138
0	1739	207.883020098904	139
0	1741	208.945735679358	140
0	1743	210.059032298509	141
0	1761	212.007869181806	142
0	1763	213.098857155187	143
0	1781	214.102700971883	144
0	1799	215.112020033529	145
0	1801	216.340437774198	146
0	1815	217.776629432222	147
0	1833	219.542632516358	148
0	1851	220.897877253011	149
0	1869	222.507942335798	150
0	1883	223.946187739378	151
0	1901	225.772220987013	152
0	1919	227.716479956989	153
0	1937	229.007828186384	154
0	1955	230.35002344486	155
0	1957	231.667954489008	156
0	1967	233.163508525934	157
0	1985	234.389234393487	158
0	2003	236.096266146401	159
0	2021	237.177613047302	160
0	2039	238.428813022213	161
0	2057	239.882246888593	162
1	3	0.126198958082	0
1	3	0.126198958082	1
1	3	0.126198958082	2
1	15	3.504078647435	3
1	15	3.504078647435	4
1	15	3.504078647435	5
1	33	4.887020686304	6
1	33	4.887020686304	7
1	33	4.887020686304	8
1	51	6.812541988781	9
1	51	6.812541988781	10
1	51	6.812541988781	11
1	69	8.663312410074	12
1	69	8.663312410074	13
1	69	8.663312410074	14
1	87	9.859955503992	15
1	87	9.859955503992	16
1	87	9.859955503992	17
1	107	13.223990927435	18
1	107	13.223990927435	19
1	107	13.223990927435	20
1	125	15.13768144851	21
1	125	15.13768144851	22
1	125	15.13768144851	23
1	147	20.074335809953	24
1	147	20.074335809953	25
1	147	20.074335809953	26
1	165	21.966098821904	27
1	165	21.966098821904	28
1	165	21.966098821904	29
1	183	23.610141720123	30
1	183	23.610141720123	31
1	183	23.610141720123	32
1	201	25.405073609709	33
1	201	25.405073609709	34
1	201	25.405073609709	35
1	219	26.550087482384	36
1	219	26.550087482384	37
1	219	26.550087482384	38
1	237	28.108001846675	39
1	237	28.108001846675	40
1	237	28.108001846675	41
1	249	33.166885818976	42
1	249	33.166885818976	43
1	249	33.166885818976	44
1	263	34.271025776875	45
1	263	34.271025776875	46
1	263	34.271025776875	47
1	281	35.841273699154	48
1	281	35.841273699154	49
1	281	35.841273699154	50
1	303	40.05206247784	51
1	303	40.05206247784	52
1	303	40.05206247784	53
1	323	43.085187958241	54
1	323	43.085187958241	55
1	323	43.085187958241	56
1	341	44.389171302206	57
1	341	44.389171302206	58
1	341	44.389171302206	59
1	359	45.839256497155	60
1	359	45.839256497155	61
1	359	45.839256497155	62
1	365	47.602876047082	63
1	365	47.602876047082	64
1	365	47.602876047082	65
1	375	48.705119473431	66
1	375	48.705119473431	67
1	375	48.705119473431	68
1	397	53.75552716367	69
1	397	53.75552716367	70
1	397	53.75552716367	71
1	415	55.475979764093	72
1	415	55.475979764093	73
1	415	55.475979764093	74
1	435	57.539302843375	75
1	435	57.539302843375	76
1	435	57.539302843375	77
1	453	58.988985134291	78
1	453	58.988985134291	79
1	453	58.988985134291	80
1	471	60.324672298687	81
1	471	60.324672298687	82
1	471	60.324672298687	83
1	489	62.279840227649	84
1	489	62.279840227649	85
1	489	62.279840227649	86
1	495	63.462722662281	87
1	495	63.462722662281	88
1	495	63.462722662281	89
1	513	64.483487999599	90
1	513	64.483487999599	91
1	513	64.483487999599	92
1	531	65.69064664571	93
1	531	65.69064664571	94
1	531	65.69064664571	95
1	549	66.69770776348	96
1	549	66.69770776348	97
1	549	66.69770776348	98
1	567	67.86023874084	99
1	567	67.86023874084	100
1	567	67.86023874084	101
1	581	69.383533147216	102
1	581	69.383533147216	103
1	581	69.383533147216	104
1	601	71.486388416484	105
1	601	71.486388416484	106
1	601	71.486388416484	107
1	611	72.770995363009	108
1	611	72.770995363009	109
1	611	72.770995363009	110
1	631	75.714742666756	111
1	631	75.714742666756	112
1	631	75.714742666756	113
1	639	78.697001430094	114
1	639	78.697001430094	115
1	639	78.697001430094	116
1	657	80.371276741207	117
1	657	80.371276741207	118
1	657	80.371276741207	119
1	675	82.050860549293	120
1	675	82.050860549293	121
1	675	82.050860549293	122
1	693	83.457198523619	123
1	693	83.457198523619	124
1	693	83.457198523619	125
1	711	85.181415637939	126
1	711	85.181415637939	127
1	711	85.181415637939	128
1	729	86.872485441609	129
1	729	86.872485441609	130
1	729	86.872485441609	131
1	747	88.274961560617	132
1	747	88.274961560617	133
1	747	88.274961560617	134
1	765	89.833961424069	135
1	765	89.833961424069	136
1	765	89.833961424069	137
1	783	91.100780787805	138
1	783	91.100780787805	139
1	783	91.100780787805	140
1	801	92.835552163934	141
1	801	92.835552163934	142
1	801	92.835552163934	143
1	819	94.046159953432	144
1	819	94.046159953432	145
1	819	94.046159953432	146
1	837	95.509335374894	147
1	837	95.509335374894	148
1	837	95.509335374894	149
1	849	102.343812851129	150
1	849	102.343812851129	151
1	849	102.343812851129	152
1	867	103.920152772728	153
1	867	103.920152772728	154
1	867	103.920152772728	155
1	881	105.601833973831	156
1	881	105.601833973831	157
1	881	105.601833973831	158
1	903	110.014262650067	159
1	903	110.014262650067	160
1	903	110.014262650067	161
1	923	113.350613987084	162
1	923	113.350613987084	163
1	923	113.350613987084	164
1	941	115.220560511385	165
1	941	115.220560511385	166
1	941	115.220560511385	167
1	959	116.995198681487	168
1	959	116.995198681487	169
1	959	116.995198681487	170
1	977	118.137779232498	171
1	977	118.137779232498	172
1	977	118.137779232498	173
1	995	120.034949986738	174
1	995	120.034949986738	175
1	995	120.034949986738	176
1	1013	121.606357413933	177
1	1013	121.606357413933	178
1	1013	121.606357413933	179
1	1031	123.57273301396	180
1	1031	123.57273301396	181
1	1031	123.57273301396	182
1	1037	124.722696160527	183
1	1037	124.722696160527	184
1	1037	124.722696160527	185
1	1057	127.494441168102	186
1	1057	127.494441168102	187
1	1057	127.494441168102	188
1	1075	128.54568141846	189
1	1075	128.54568141846	190
1	1075	128.54568141846	191
1	1093	129.601746311249	192
1	1093	129.601746311249	193
1	1093	129.601746311249	194
1	1111	130.710074009053	195
1	1111	130.710074009053	196
1	1111	130.710074009053	197
1	1129	131.861494102343	198
1	1129	131.861494102343	199
1	1129	131.861494102343	200
1	1147	133.830640966792	201
1	1147	133.830640966792	202
1	1147	133.830640966792	203
1	1165	135.44997786944	204
1	1165	135.44997786944	205
1	1165	135.44997786944	206
1	1183	136.694614905709	207
1	1183	136.694614905709	208
1	1183	136.694614905709	209
1	1195	142.680330436035	210
1	1195	142.680330436035	211
1	1195	142.680330436035	212
1	1201	144.171148205399	213
1	1201	144.171148205399	214
1	1201	144.171148205399	215
1	1219	146.087686510969	216
1	1219	146.087686510969	217
1	1219	146.087686510969	218
1	1237	147.562500056514	219
1	1237	147.562500056514	220
1	1237	147.562500056514	221
1	1255	149.522093156572	222
1	1255	149.522093156572	223
1	1255	149.522093156572	224
1	1273	151.316630979242	225
1	1273	151.316630979242	226
1	1273	151.316630979242	227
1	1283	153.116082523146	228
1	1283	153.116082523146	229
1	1283	153.116082523146	230
1	1301	154.193005646097	231
1	1301	154.193005646097	232
1	1301	154.193005646097	233
1	1321	156.854563299922	234
1	1321	156.854563299922	235
1	1321	156.854563299922	236
1	1341	160.36339390807	237
1	1341	160.36339390807	238
1	1341	160.36339390807	239
1	1359	162.289960530918	240
1	1359	162.289960530918	241
1	1359	162.289960530918	242
1	1377	163.551883802966	243
1	1377	163.551883802966	244
1	1377	163.551883802966	245
1	1383	165.150692528005	246
1	1383	165.150692528005	247
1	1383	165.150692528005	248
1	1403	168.062382996614	249
1	1403	168.062382996614	250
1	1403	168.062382996614	251
1	1423	170.460124731567	252
1	1423	170.460124731567	253
1	1423	170.460124731567	254
1	1441	171.751325606896	255
1	1441	171.751325606896	256
1	1441	171.751325606896	257
1	1459	172.900430233838	258
1	1459	172.900430233838	259
1	1459	172.900430233838	260
1	1465	174.70151059223	261
1	1465	174.70151059223	262
1	1465	174.70151059223	263
1	1485	177.380587257953	264
1	1485	177.380587257953	265
1	1485	177.380587257953	266
1	1505	179.983360746177	267
1	1505	179.983360746177	268
1	1505	179.983360746177	269
1	1523	181.83420452289	270
1	1523	181.83420452289	271
1	1523	181.83420452289	272
1	1533	186.39673064017	273
1	1533	186.39673064017	274
1	1533	186.39673064017	275
1	1553	189.759154675964	276
1	1553	189.759154675964	277
1	1553	189.759154675964	278
1	1571	190.902450050738	279
1	1571	190.902450050738	280
1	1571	190.902450050738	281
1	1589	192.42698768392	282
1	1589	192.42698768392	283
1	1589	192.42698768392	284
1	1607	193.49480586189	285
1	1607	193.49480586189	286
1	1607	193.49480586189	287
1	1625	194.73719594827	288
1	1625	194.73719594827	289
1	1625	194.73719594827	290
1	1643	196.166599876285	291
1	1643	196.166599876285	292
1	1643	196.166599876285	293
1	1661	197.922446965287	294
1	1661	197.922446965287	295
1	1661	197.922446965287	296
1	1669	200.862482112017	297
1	1669	200.862482112017	298
1	1669	200.862482112017	299
1	1687	202.679561074275	300
1	1687	202.679561074275	301
1	1687	202.679561074275	302
1	1705	204.530733095387	303
1	1705	204.530733095387	304
1	1705	204.530733095387	305
1	1723	206.357218435391	306
1	1723	206.357218435391	307
1	1723	206.357218435391	308
1	1745	210.082970956743	309
1	1745	210.082970956743	310
1	1745	210.082970956743	311
1	1765	213.140422666637	312
1	1765	213.140422666637	313
1	1765	213.140422666637	314
1	1783	214.148493587892	315
1	1783	214.148493587892	316
1	1783	214.148493587892	317
1	1803	216.357592638505	318
1	1803	216.357592638505	319
1	1803	216.357592638505	320
1	1817	217.797160837382	321
1	1817	217.797160837382	322
1	1817	217.797160837382	323
1	1835	219.555071440344	324
1	1835	219.555071440344	325
1	1835	219.555071440344	326
1	1853	220.919998074626	327
1	1853	220.919998074626	328
1	1853	220.919998074626	329
1	1871	222.522836621121	330
1	1871	222.522836621121	331
1	1871	222.522836621121	332
1	1885	223.958242433356	333
1	1885	223.958242433356	334
1	1885	223.958242433356	335
1	1903	225.785851465235	336
1	1903	225.785851465235	337
1	1903	225.785851465235	338
1	1921	227.728901815302	339
1	1921	227.728901815302	340
1	1921	227.728901815302	341
1	1939	229.033593674237	342
1	1939	229.033593674237	343
1	1939	229.033593674237	344
1	1959	231.697295912471	345
1	1959	231.697295912471	346
1	1959	231.697295912471	347
1	1969	233.177945488966	348
1	1969	233.177945488966	349
1	1969	233.177945488966	350
1	1987	234.407061755882	351
1	1987	234.407061755882	352
1	1987	234.407061755882	353
1	2005	236.111745228546	354
1	2005	236.111745228546	355
1	2005	236.111745228546	356
1	2023	237.198058270957	357
1	2023	237.198058270957	358
1	2023	237.198058270957	359
1	2041	238.451247293944	360
1	2041	238.451247293944	361
1	2041	238.451247293944	362
1	2059	239.893131146932	363
1	2059	239.893131146932	364
1	2059	239.893131146932	365
2	7	0.205690100955	0
2	7	0.205690100955	1
2	7	0.205690100955	2
2	19	3.519512041221	3
2	19	3.519512041221	4
2	19	3.519512041221	5
2	38	4.899228418473	6
2	38	4.899228418473	7
2	38	4.899228418473	8
2	56	6.824403241671	9
2	56	6.824403241671	10
2	56	6.824403241671	11
2	73	8.688605491661	12
2	73	8.688605491661	13
2	73	8.688605491661	14
2	91	9.876289929571	15
2	91	9.876289929571	16
2	91	9.876289929571	17
2	112	13.242526847865	18
2	112	13.242526847865	19
2	112	13.242526847865	20
2	130	15.155357923454	21
2	130	15.155357923454	22
2	130	15.155357923454	23
2	156	20.110578680454	24
2	156	20.110578680454	25
2	156	20.110578680454	26
2	173	21.998721530854	27
2	173	21.998721530854	28
2	173	21.998721530854	29
2	187	23.625386517711	30
2	187	23.625386517711	31
2	187	23.625386517711	32
2	205	25.427419391183	33
2	205	25.427419391183	34
2	205	25.427419391183	35
2	228	26.587057912149	36
2	228	26.587057912149	37
2	228	26.587057912149	38
2	253	33.211202774247	39
2	253	33.211202774247	40
2	253	33.211202774247	41
2	271	34.297151839794	42
2	271	34.297151839794	43
2	271	34.297151839794	44
2	290	35.863028799451	45
2	290	35.863028799451	46
2	290	35.863028799451	47
2	311	40.076097984498	48
2	311	40.076097984498	49
2	311	40.076097984498	50
2	327	43.096893367197	51
2	327	43.096893367197	52
2	327	43.096893367197	53
2	345	44.40074992648	54
2	345	44.40074992648	55
2	345	44.40074992648	56
2	379	48.718175174902	57
2	379	48.718175174902	58
2	379	48.718175174902	59
2	401	53.773661193147	60
2	401	53.773661193147	61
2	401	53.773661193147	62
2	419	55.491002976546	63
2	419	55.491002976546	64
2	419	55.491002976546	65
2	440	57.55124107295	66
2	440	57.55124107295	67
2	440	57.55124107295	68
2	457	58.999226873715	69
2	457	58.999226873715	70
2	457	58.999226873715	71
2	479	60.37360999578	72
2	479	60.37360999578	73
2	479	60.37360999578	74
2	499	63.47272668332	75
2	499	63.47272668332	76
2	499	63.47272668332	77
2	518	64.502327041863	78
2	518	64.502327041863	79
2	518	64.502327041863	80
2	535	65.705460976696	81
2	535	65.705460976696	82
2	535	65.705460976696	83
2	554	66.71327124252	84
2	554	66.71327124252	85
2	554	66.71327124252	86
2	571	67.877740459944	87
2	571	67.877740459944	88
2	571	67.877740459944	89
2	585	69.394226991527	90
2	585	69.394226991527	91
2	585	69.394226991527	92
2	605	71.507186279527	93
2	605	71.507186279527	94
2	605	71.507186279527	95
2	616	72.78997279761	96
2	616	72.78997279761	97
2	616	72.78997279761	98
2	643	78.71629273915	99
2	643	78.71629273915	100
2	643	78.71629273915	101
2	665	80.395200985112	102
2	665	80.395200985112	103
2	665	80.395200985112	104
2	687	82.137759987168	105
2	687	82.137759987168	106
2	687	82.137759987168	107
2	697	83.467550353085	108
2	697	83.467550353085	109
2	697	83.467550353085	110
2	716	85.206682676231	111
2	716	85.206682676231	112
2	716	85.206682676231	113
2	733	86.931859151686	114
2	733	86.931859151686	115
2	733	86.931859151686	116
2	755	88.304791698875	117
2	755	88.304791698875	118
2	755	88.304791698875	119
2	773	89.862914067722	120
2	773	89.862914067722	121
2	773	89.862914067722	122
2	791	91.122872228142	123
2	791	91.122872228142	124
2	791	91.122872228142	125
2	809	92.857909800571	126
2	809	92.857909800571	127
2	809	92.857909800571	128
2	828	94.090738727526	129
2	828	94.090738727526	130
2	828	94.090738727526	131
2	857	102.36787216949	132
2	857	102.36787216949	133
2	857	102.36787216949	134
2	875	103.95365857469	135
2	875	103.95365857469	136
2	875	103.95365857469	137
2	889	105.653150657547	138
2	889	105.653150657547	139
2	889	105.653150657547	140
2	907	110.036680174017	141
2	907	110.036680174017	142
2	907	110.036680174017	143
2	932	113.37771149753	144
2	932	113.37771149753	145
2	932	113.37771149753	146
2	949	115.264727354982	147
2	949	115.264727354982	148
2	949	115.264727354982	149
2	963	117.013374828881	150
2	963	117.013374828881	151
2	963	117.013374828881	152
2	986	118.172597049994	153
2	986	118.172597049994	154
2	986	118.172597049994	155
2	1004	120.06131067069	156
2	1004	120.06131067069	157
2	1004	120.06131067069	158
2	1021	121.642752155288	159
2	1021	121.642752155288	160
2	1021	121.642752155288	161
2	1041	124.738722725012	162
2	1041	124.738722725012	163
2	1041	124.738722725012	164
2	1061	127.506280195639	165
2	1061	127.506280195639	166
2	1061	127.506280195639	167
2	1080	128.562455570378	168
2	1080	128.562455570378	169
2	1080	128.562455570378	170
2	1102	129.670761747509	171
2	1102	129.670761747509	172
2	1102	129.670761747509	173
2	1116	130.734777290706	174
2	1116	130.734777290706	175
2	1116	130.734777290706	176
2	1137	131.896120312972	177
2	1137	131.896120312972	178
2	1137	131.896120312972	179
2	1156	133.870419493651	180
2	1156	133.870419493651	181
2	1156	133.870419493651	182
2	1169	135.465559441243	183
2	1169	135.465559441243	184
2	1169	135.465559441243	185
2	1213	144.21691719459	186
2	1213	144.21691719459	187
2	1213	144.21691719459	188
2	1227	146.134089323206	189
2	1227	146.134089323206	190
2	1227	146.134089323206	191
2	1245	147.585568196362	192
2	1245	147.585568196362	193
2	1245	147.585568196362	194
2	1259	149.535595574671	195
2	1259	149.535595574671	196
2	1259	149.535595574671	197
2	1287	153.132897007222	198
2	1287	153.132897007222	199
2	1287	153.132897007222	200
2	1305	154.204132674303	201
2	1305	154.204132674303	202
2	1305	154.204132674303	203
2	1326	156.872572565555	204
2	1326	156.872572565555	205
2	1326	156.872572565555	206
2	1346	160.387612996356	207
2	1346	160.387612996356	208
2	1346	160.387612996356	209
2	1364	162.312234864385	210
2	1364	162.312234864385	211
2	1364	162.312234864385	212
2	1387	165.161979583568	213
2	1387	165.161979583568	214
2	1387	165.161979583568	215
2	1415	168.107729970524	216
2	1415	168.107729970524	217
2	1415	168.107729970524	218
2	1431	170.491109790573	219
2	1431	170.491109790573	220
2	1431	170.491109790573	221
2	1445	171.781734102877	222
2	1445	171.781734102877	223
2	1445	171.781734102877	224
2	1469	174.719281554335	225
2	1469	174.719281554335	226
2	1469	174.719281554335	227
2	1493	177.406276313015	228
2	1493	177.406276313015	229
2	1493	177.406276313015	230
2	1514	180.021627746213	231
2	1514	180.021627746213	232
2	1514	180.021627746213	233
2	1537	186.406871665509	234
2	1537	186.406871665509	235
2	1537	186.406871665509	236
2	1557	189.771917729584	237
2	1557	189.771917729584	238
2	1557	189.771917729584	239
2	1575	190.915354015997	240
2	1575	190.915354015997	241
2	1575	190.915354015997	242
2	1601	192.489107255844	243
2	1601	192.489107255844	244
2	1601	192.489107255844	245
2	1611	193.508076896996	246
2	1611	193.508076896996	247
2	1611	193.508076896996	248
2	1629	194.749116471493	249
2	1629	194.749116471493	250
2	1629	194.749116471493	251
2	1648	196.182127628187	252
2	1648	196.182127628187	253
2	1648	196.182127628187	254
2	1674	200.878696688356	255
2	1674	200.878696688356	256
2	1674	200.878696688356	257
2	1692	202.698900924463	258
2	1692	202.698900924463	259
2	1692	202.698900924463	260
2	1709	204.540840451822	261
2	1709	204.540840451822	262
2	1709	204.540840451822	263
2	1731	206.395022895432	264
2	1731	206.395022895432	265
2	1731	206.395022895432	266
2	1749	210.101764224609	267
2	1749	210.101764224609	268
2	1749	210.101764224609	269
2	1769	213.164901515702	270
2	1769	213.164901515702	271
2	1769	213.164901515702	272
2	1787	214.167648803282	273
2	1787	214.167648803282	274
2	1787	214.167648803282	275
2	1811	216.426443161069	276
2	1811	216.426443161069	277
2	1811	216.426443161069	278
2	1829	217.865220993261	279
2	1829	217.865220993261	280
2	1829	217.865220993261	281
2	1843	219.584124603351	282
2	1843	219.584124603351	283
2	1843	219.584124603351	284
2	1862	220.950674192016	285
2	1862	220.950674192016	286
2	1862	220.950674192016	287
2	1875	222.534434551451	288
2	1875	222.534434551451	289
2	1875	222.534434551451	290
2	1893	223.982815193259	291
2	1893	223.982815193259	292
2	1893	223.982815193259	293
2	1907	225.796018613257	294
2	1907	225.796018613257	295
2	1907	225.796018613257	296
2	1929	227.763943760491	297
2	1929	227.763943760491	298
2	1929	227.763943760491	299
2	1943	229.049511049764	300
2	1943	229.049511049764	301
2	1943	229.049511049764	302
2	1973	233.203307854789	303
2	1973	233.203307854789	304
2	1973	233.203307854789	305
2	1991	234.431038214889	306
2	1991	234.431038214889	307
2	1991	234.431038214889	308
2	2009	236.129886188781	309
2	2009	236.129886188781	310
2	2009	236.129886188781	311
2	2027	237.212406863007	312
2	2027	237.212406863007	313
2	2027	237.212406863007	314
2	2045	238.470853873517	315
2	2045	238.470853873517	316
2	2045	238.470853873517	317
2	2063	239.903785532925	318
2	2063	239.903785532925	319
2	2063	239.903785532925	320
3	20	3.521818245138	0
3	20	3.521818245138	1
3	20	3.521818245138	2
3	37	4.898533415481	3
3	37	4.898533415481	4
3	37	4.898533415481	5
3	55	6.822940367573	6
3	55	6.822940367573	7
3	55	6.822940367573	8
3	77	8.698790067441	9
3	77	8.698790067441	10
3	77	8.698790067441	11
3	99	9.92093115289	12
3	99	9.92093115289	13
3	99	9.92093115289	14
3	111	13.234539318372	15
3	111	13.234539318372	16
3	111	13.234539318372	17
3	129	15.148193891559	18
3	129	15.148193891559	19
3	129	15.148193891559	20
3	151	20.086143288237	21
3	151	20.086143288237	22
3	151	20.086143288237	23
3	169	21.979244941645	24
3	169	21.979244941645	25
3	169	21.979244941645	26
3	188	23.628778456439	27
3	188	23.628778456439	28
3	188	23.628778456439	29
3	213	25.461337396021	30
3	213	25.461337396021	31
3	213	25.461337396021	32
3	223	26.561562461387	33
3	223	26.561562461387	34
3	223	26.561562461387	35
3	257	33.222528644829	36
3	257	33.222528644829	37
3	257	33.222528644829	38
3	267	34.281214010303	39
3	267	34.281214010303	40
3	267	34.281214010303	41
3	285	35.851891577643	42
3	285	35.851891577643	43
3	285	35.851891577643	44
3	307	40.06433516383	45
3	307	40.06433516383	46
3	307	40.06433516383	47
3	332	43.112847758412	48
3	332	43.112847758412	49
3	332	43.112847758412	50
3	349	44.418756097195	51
3	349	44.418756097195	52
3	349	44.418756097195	53
3	369	47.615891357053	54
3	369	47.615891357053	55
3	369	47.615891357053	56
3	383	48.740996573522	57
3	383	48.740996573522	58
3	383	48.740996573522	59
3	405	53.795519772362	60
3	405	53.795519772362	61
3	405	53.795519772362	62
3	423	55.511079970193	63
3	423	55.511079970193	64
3	423	55.511079970193	65
3	439	57.549454172443	66
3	439	57.549454172443	67
3	439	57.549454172443	68
3	461	59.015386518009	69
3	461	59.015386518009	70
3	461	59.015386518009	71
3	475	60.343673554806	72
3	475	60.343673554806	73
3	475	60.343673554806	74
3	507	63.497806680783	75
3	507	63.497806680783	76
3	507	63.497806680783	77
3	517	64.496850790032	78
3	517	64.496850790032	79
3	517	64.496850790032	80
3	536	65.706640918081	81
3	536	65.706640918081	82
3	536	65.706640918081	83
3	553	66.709921338556	84
3	553	66.709921338556	85
3	553	66.709921338556	86
3	575	67.889541920386	87
3	575	67.889541920386	88
3	575	67.889541920386	89
3	590	69.408422970216	90
3	590	69.408422970216	91
3	590	69.408422970216	92
3	615	72.783544801049	93
3	615	72.783544801049	94
3	615	72.783544801049	95
3	647	78.727368226663	96
3	647	78.727368226663	97
3	647	78.727368226663	98
3	661	80.382837965387	99
3	661	80.382837965387	100
3	661	80.382837965387	101
3	679	82.068591994363	102
3	679	82.068591994363	103
3	679	82.068591994363	104
3	701	83.48327368435	105
3	701	83.48327368435	106
3	701	83.48327368435	107
3	715	85.19732418374	108
3	715	85.19732418374	109
3	715	85.19732418374	110
3	738	86.949333621168	111
3	738	86.949333621168	112
3	738	86.949333621168	113
3	751	88.289527193735	114
3	751	88.289527193735	115
3	751	88.289527193735	116
3	769	89.846808062408	117
3	769	89.846808062408	118
3	769	89.846808062408	119
3	787	91.111060730024	120
3	787	91.111060730024	121
3	787	91.111060730024	122
3	805	92.845880733895	123
3	805	92.845880733895	124
3	805	92.845880733895	125
3	823	94.066205348483	126
3	823	94.066205348483	127
3	823	94.066205348483	128
3	853	102.354094617133	129
3	853	102.354094617133	130
3	853	102.354094617133	131
3	871	103.935300983945	132
3	871	103.935300983945	133
3	871	103.935300983945	134
3	885	105.619569464524	135
3	885	105.619569464524	136
3	885	105.619569464524	137
3	911	110.070269628684	138
3	911	110.070269628684	139
3	911	110.070269628684	140
3	927	113.363683281326	141
3	927	113.363683281326	142
3	927	113.363683281326	143
3	945	115.236244923339	144
3	945	115.236244923339	145
3	945	115.236244923339	146
3	967	117.024823399232	147
3	967	117.024823399232	148
3	967	117.024823399232	149
3	981	118.155062160624	150
3	981	118.155062160624	151
3	981	118.155062160624	152
3	999	120.04753640256	153
3	999	120.04753640256	154
3	999	120.04753640256	155
3	1017	121.628459889465	156
3	1017	121.628459889465	157
3	1017	121.628459889465	158
3	1049	124.776794298778	159
3	1049	124.776794298778	160
3	1049	124.776794298778	161
3	1069	127.541470964624	162
3	1069	127.541470964624	163
3	1069	127.541470964624	164
3	1079	128.560035602339	165
3	1079	128.560035602339	166
3	1079	128.560035602339	167
3	1097	129.653340555053	168
3	1097	129.653340555053	169
3	1097	129.653340555053	170
3	1115	130.731277957247	171
3	1115	130.731277957247	172
3	1115	130.731277957247	173
3	1133	131.877458786333	174
3	1133	131.877458786333	175
3	1133	131.877458786333	176
3	1151	133.849280311882	177
3	1151	133.849280311882	178
3	1151	133.849280311882	179
3	1170	135.474841195069	180
3	1170	135.474841195069	181
3	1170	135.474841195069	182
3	1205	144.181987778892	183
3	1205	144.181987778892	184
3	1205	144.181987778892	185
3	1223	146.123385435015	186
3	1223	146.123385435015	187
3	1223	146.123385435015	188
3	1241	147.574087100773	189
3	1241	147.574087100773	190
3	1241	147.574087100773	191
3	1260	149.541184503096	192
3	1260	149.541184503096	193
3	1260	149.541184503096	194
3	1277	151.33165784872	195
3	1277	151.33165784872	196
3	1277	151.33165784872	197
3	1288	153.133647599075	198
3	1288	153.133647599075	199
3	1288	153.133647599075	200
3	1310	154.218496218603	201
3	1310	154.218496218603	202
3	1310	154.218496218603	203
3	1325	156.866187683249	204
3	1325	156.866187683249	205
3	1325	156.866187683249	206
3	1345	160.378555983358	207
3	1345	160.378555983358	208
3	1345	160.378555983358	209
3	1363	162.307231475805	210
3	1363	162.307231475805	211
3	1363	162.307231475805	212
3	1388	165.163427896685	213
3	1388	165.163427896685	214
3	1388	165.163427896685	215
3	1407	168.07630066818	216
3	1407	168.07630066818	217
3	1407	168.07630066818	218
3	1427	170.479982629644	219
3	1427	170.479982629644	220
3	1427	170.479982629644	221
3	1450	171.798760031548	222
3	1450	171.798760031548	223
3	1450	171.798760031548	224
3	1470	174.723574550906	225
3	1470	174.723574550906	226
3	1470	174.723574550906	227
3	1489	177.390677050944	228
3	1489	177.390677050944	229
3	1489	177.390677050944	230
3	1509	180.000124534749	231
3	1509	180.000124534749	232
3	1509	180.000124534749	233
3	1545	186.45104784591	234
3	1545	186.45104784591	235
3	1545	186.45104784591	236
3	1558	189.774407932046	237
3	1558	189.774407932046	238
3	1558	189.774407932046	239
3	1576	190.922115021669	240
3	1576	190.922115021669	241
3	1576	190.922115021669	242
3	1593	192.440487355909	243
3	1593	192.440487355909	244
3	1593	192.440487355909	245
3	1616	193.530299456611	246
3	1616	193.530299456611	247
3	1616	193.530299456611	248
3	1634	194.762325609251	249
3	1634	194.762325609251	250
3	1634	194.762325609251	251
3	1647	196.179178488505	252
3	1647	196.179178488505	253
3	1647	196.179178488505	254
3	1673	200.87451495064	255
3	1673	200.87451495064	256
3	1673	200.87451495064	257
3	1691	202.695123474524	258
3	1691	202.695123474524	259
3	1691	202.695123474524	260
3	1717	204.580463267203	261
3	1717	204.580463267203	262
3	1717	204.580463267203	263
3	1727	206.376363103408	264
3	1727	206.376363103408	265
3	1727	206.376363103408	266
3	1754	210.115113692912	267
3	1754	210.115113692912	268
3	1754	210.115113692912	269
3	1774	213.182360023943	270
3	1774	213.182360023943	271
3	1774	213.182360023943	272
3	1791	214.182180316695	273
3	1791	214.182180316695	274
3	1791	214.182180316695	275
3	1807	216.397701794732	276
3	1807	216.397701794732	277
3	1807	216.397701794732	278
3	1821	217.815627918404	279
3	1821	217.815627918404	280
3	1821	217.815627918404	281
3	1839	219.572590512521	282
3	1839	219.572590512521	283
3	1839	219.572590512521	284
3	1857	220.935259004381	285
3	1857	220.935259004381	286
3	1857	220.935259004381	287
3	1889	223.97037035325	288
3	1889	223.97037035325	289
3	1889	223.97037035325	290
3	1908	225.797507336694	291
3	1908	225.797507336694	292
3	1908	225.797507336694	293
3	1925	227.750928990602	294
3	1925	227.750928990602	295
3	1925	227.750928990602	296
3	1947	229.066156451207	297
3	1947	229.066156451207	298
3	1947	229.066156451207	299
3	1963	231.70828417911	300
3	1963	231.70828417911	301
3	1963	231.70828417911	302
3	1977	233.234032588415	303
3	1977	233.234032588415	304
3	1977	233.234032588415	305
3	1996	234.452088440835	306
3	1996	234.452088440835	307
3	1996	234.452088440835	308
3	2013	236.140309785923	309
3	2013	236.140309785923	310
3	2013	236.140309785923	311
3	2031	237.223854729364	312
3	2031	237.223854729364	313
3	2031	237.223854729364	314
3	2050	238.486906318207	315
3	2050	238.486906318207	316
3	2050	238.486906318207	317
3	2064	239.90581088078	318
3	2064	239.90581088078	319
3	2064	239.90581088078	320
4	24	3.531799285287	0
4	24	3.531799285287	1
4	24	3.531799285287	2
4	45	4.921120187593	3
4	45	4.921120187593	4
4	45	4.921120187593	5
4	63	6.844043007882	6
4	63	6.844043007882	7
4	63	6.844043007882	8
4	81	8.753763174125	9
4	81	8.753763174125	10
4	81	8.753763174125	11
4	95	9.90965860757	12
4	95	9.90965860757	13
4	95	9.90965860757	14
4	119	13.255153691501	15
4	119	13.255153691501	16
4	119	13.255153691501	17
4	134	15.159701726513	18
4	134	15.159701726513	19
4	134	15.159701726513	20
4	155	20.104606471423	21
4	155	20.104606471423	22
4	155	20.104606471423	23
4	177	22.010560025963	24
4	177	22.010560025963	25
4	177	22.010560025963	26
4	195	23.658756162862	27
4	195	23.658756162862	28
4	195	23.658756162862	29
4	209	25.447184048838	30
4	209	25.447184048838	31
4	209	25.447184048838	32
4	227	26.577804485963	33
4	227	26.577804485963	34
4	227	26.577804485963	35
4	275	34.312718961783	36
4	275	34.312718961783	37
4	275	34.312718961783	38
4	289	35.862347325718	39
4	289	35.862347325718	40
4	289	35.862347325718	41
4	315	40.090736353649	42
4	315	40.090736353649	43
4	315	40.090736353649	44
4	331	43.107619312245	45
4	331	43.107619312245	46
4	331	43.107619312245	47
4	353	44.439819504758	48
4	353	44.439819504758	49
4	353	44.439819504758	50
4	384	48.741457919013	51
4	384	48.741457919013	52
4	384	48.741457919013	53
4	409	53.810462862106	54
4	409	53.810462862106	55
4	409	53.810462862106	56
4	427	55.522430490194	57
4	427	55.522430490194	58
4	427	55.522430490194	59
4	447	57.566447352449	60
4	447	57.566447352449	61
4	447	57.566447352449	62
4	462	59.017131096568	63
4	462	59.017131096568	64
4	462	59.017131096568	65
4	483	60.400489400284	66
4	483	60.400489400284	67
4	483	60.400489400284	68
4	503	63.487452036702	69
4	503	63.487452036702	70
4	503	63.487452036702	71
4	522	64.50762742095	72
4	522	64.50762742095	73
4	522	64.50762742095	74
4	543	65.720459145394	75
4	543	65.720459145394	76
4	543	65.720459145394	77
4	558	66.722404238169	78
4	558	66.722404238169	79
4	558	66.722404238169	80
4	589	69.404933462606	81
4	589	69.404933462606	82
4	589	69.404933462606	83
4	620	72.795044661929	84
4	620	72.795044661929	85
4	620	72.795044661929	86
4	648	78.733546489002	87
4	648	78.733546489002	88
4	648	78.733546489002	89
4	669	80.417765217092	90
4	669	80.417765217092	91
4	669	80.417765217092	92
4	683	82.108510590296	93
4	683	82.108510590296	94
4	683	82.108510590296	95
4	702	83.490707914315	96
4	702	83.490707914315	97
4	702	83.490707914315	98
4	720	85.213231885952	99
4	720	85.213231885952	100
4	720	85.213231885952	101
4	737	86.943314357485	102
4	737	86.943314357485	103
4	737	86.943314357485	104
4	756	88.30606766861	105
4	756	88.30606766861	106
4	756	88.30606766861	107
4	774	89.870677904861	108
4	774	89.870677904861	109
4	774	89.870677904861	110
4	795	91.14836417388	111
4	795	91.14836417388	112
4	795	91.14836417388	113
4	810	92.860534281196	114
4	810	92.860534281196	115
4	810	92.860534281196	116
4	827	94.088138991085	117
4	827	94.088138991085	118
4	827	94.088138991085	119
4	858	102.368990730064	120
4	858	102.368990730064	121
4	858	102.368990730064	122
4	890	105.659768440618	123
4	890	105.659768440618	124
4	890	105.659768440618	125
4	912	110.070681403655	126
4	912	110.070681403655	127
4	912	110.070681403655	128
4	931	113.376990329382	129
4	931	113.376990329382	130
4	931	113.376990329382	131
4	953	115.281350073748	132
4	953	115.281350073748	133
4	953	115.281350073748	134
4	968	117.029405215754	135
4	968	117.029405215754	136
4	968	117.029405215754	137
4	985	118.166828791379	138
4	985	118.166828791379	139
4	985	118.166828791379	140
4	1003	120.060115172582	141
4	1003	120.060115172582	142
4	1003	120.060115172582	143
4	1022	121.646998193011	144
4	1022	121.646998193011	145
4	1022	121.646998193011	146
4	1045	124.752349810761	147
4	1045	124.752349810761	148
4	1045	124.752349810761	149
4	1065	127.530867765565	150
4	1065	127.530867765565	151
4	1065	127.530867765565	152
4	1087	128.578837172465	153
4	1087	128.578837172465	154
4	1087	128.578837172465	155
4	1101	129.667476153244	156
4	1101	129.667476153244	157
4	1101	129.667476153244	158
4	1123	130.771697657854	159
4	1123	130.771697657854	160
4	1123	130.771697657854	161
4	1138	131.903945722326	162
4	1138	131.903945722326	163
4	1138	131.903945722326	164
4	1155	133.867502169766	165
4	1155	133.867502169766	166
4	1155	133.867502169766	167
4	1174	135.479921801411	168
4	1174	135.479921801411	169
4	1174	135.479921801411	170
4	1209	144.194314992355	171
4	1209	144.194314992355	172
4	1209	144.194314992355	173
4	1231	146.158910084749	174
4	1231	146.158910084749	175
4	1231	146.158910084749	176
4	1249	147.618922493612	177
4	1249	147.618922493612	178
4	1249	147.618922493612	179
4	1267	149.574656034238	180
4	1267	149.574656034238	181
4	1267	149.574656034238	182
4	1295	153.144440074755	183
4	1295	153.144440074755	184
4	1295	153.144440074755	185
4	1309	154.216082623487	186
4	1309	154.216082623487	187
4	1309	154.216082623487	188
4	1333	156.899489639617	189
4	1333	156.899489639617	190
4	1333	156.899489639617	191
4	1353	160.402200195585	192
4	1353	160.402200195585	193
4	1353	160.402200195585	194
4	1371	162.331537834534	195
4	1371	162.331537834534	196
4	1371	162.331537834534	197
4	1395	165.175576331268	198
4	1395	165.175576331268	199
4	1395	165.175576331268	200
4	1411	168.092172644498	201
4	1411	168.092172644498	202
4	1411	168.092172644498	203
4	1432	170.495963507932	204
4	1432	170.495963507932	205
4	1432	170.495963507932	206
4	1449	171.798626762599	207
4	1449	171.798626762599	208
4	1449	171.798626762599	209
4	1477	174.739072174588	210
4	1477	174.739072174588	211
4	1477	174.739072174588	212
4	1497	177.435905476337	213
4	1497	177.435905476337	214
4	1497	177.435905476337	215
4	1513	180.015547319649	216
4	1513	180.015547319649	217
4	1513	180.015547319649	218
4	1541	186.440394228249	219
4	1541	186.440394228249	220
4	1541	186.440394228249	221
4	1565	189.81889586082	222
4	1565	189.81889586082	223
4	1565	189.81889586082	224
4	1580	190.931026891375	225
4	1580	190.931026891375	226
4	1580	190.931026891375	227
4	1597	192.457180129306	228
4	1597	192.457180129306	229
4	1597	192.457180129306	230
4	1615	193.529548213679	231
4	1615	193.529548213679	232
4	1615	193.529548213679	233
4	1633	194.760678305716	234
4	1633	194.760678305716	235
4	1633	194.760678305716	236
4	1652	196.190959910307	237
4	1652	196.190959910307	238
4	1652	196.190959910307	239
4	1678	200.888658455355	240
4	1678	200.888658455355	241
4	1678	200.888658455355	242
4	1699	202.71101479656	243
4	1699	202.71101479656	244
4	1699	202.71101479656	245
4	1713	204.561199239423	246
4	1713	204.561199239423	247
4	1713	204.561199239423	248
4	1732	206.400270989514	249
4	1732	206.400270989514	250
4	1732	206.400270989514	251
4	1753	210.112394013251	252
4	1753	210.112394013251	253
4	1753	210.112394013251	254
4	1773	213.175190561627	255
4	1773	213.175190561627	256
4	1773	213.175190561627	257
4	1795	214.192539169941	258
4	1795	214.192539169941	259
4	1795	214.192539169941	260
4	1825	217.835596399154	261
4	1825	217.835596399154	262
4	1825	217.835596399154	263
4	1844	219.587201346658	264
4	1844	219.587201346658	265
4	1844	219.587201346658	266
4	1861	220.946006369521	267
4	1861	220.946006369521	268
4	1861	220.946006369521	269
4	1879	222.558968242734	270
4	1879	222.558968242734	271
4	1879	222.558968242734	272
4	1894	223.983799454397	273
4	1894	223.983799454397	274
4	1894	223.983799454397	275
4	1915	225.816568087719	276
4	1915	225.816568087719	277
4	1915	225.816568087719	278
4	1933	227.777509164969	279
4	1933	227.777509164969	280
4	1933	227.777509164969	281
4	1951	229.079355883003	282
4	1951	229.079355883003	283
4	1951	229.079355883003	284
4	1981	233.260772742312	285
4	1981	233.260772742312	286
4	1981	233.260772742312	287
4	1995	234.444982979995	288
4	1995	234.444982979995	289
4	1995	234.444982979995	290
4	2014	236.143769743906	291
4	2014	236.143769743906	292
4	2014	236.143769743906	293
4	2035	237.237944398696	294
4	2035	237.237944398696	295
4	2035	237.237944398696	296
4	2049	238.481009107409	297
4	2049	238.481009107409	298
4	2049	238.481009107409	299
4	2071	239.933723981787	300
4	2071	239.933723981787	301
4	2071	239.933723981787	302
5	30	3.541799285287	0
5	48	4.931120187593	1
5	66	6.854043007882	2
5	84	8.763763174125	3
5	98	9.91965860757	4
5	122	13.265153691501	5
5	140	15.169701726513	6
5	198	23.668756162862	7
5	212	25.457184048838	8
5	231	26.587804485963	9
5	278	34.322718961783	10
5	293	35.872347325718	11
5	318	40.100736353649	12
5	335	43.117619312245	13
5	390	48.751457919013	14
5	412	53.820462862106	15
5	430	55.532430490194	16
5	450	57.576447352449	17
5	468	59.027131096568	18
5	528	64.51762742095	19
5	546	65.730459145394	20
5	564	66.732404238169	21
5	593	69.414933462606	22
5	654	78.743546489002	23
5	672	80.427765217092	24
5	686	82.118510590296	25
5	708	83.500707914315	26
5	726	85.223231885952	27
5	741	86.953314357485	28
5	762	88.31606766861	29
5	798	91.15836417388	30
5	831	94.098138991085	31
5	864	102.378990730064	32
5	935	113.386990329382	33
5	1007	120.070115172582	34
5	1028	121.656998193011	35
5	1048	124.762349810761	36
5	1105	129.677476153244	37
5	1144	131.913945722326	38
5	1180	135.489921801411	39
5	1212	144.204314992355	40
5	1252	147.628922493612	41
5	1298	153.154440074755	42
5	1313	154.226082623487	43
5	1336	156.909489639617	44
5	1356	160.412200195585	45
5	1374	162.341537834534	46
5	1398	165.185576331268	47
5	1414	168.102172644498	48
5	1453	171.808626762599	49
5	1480	174.749072174588	50
5	1500	177.445905476337	51
5	1517	180.025547319649	52
5	1544	186.450394228249	53
5	1568	189.82889586082	54
5	1586	190.941026891375	55
5	1600	192.467180129306	56
5	1658	196.200959910307	57
5	1684	200.898658455355	58
5	1702	202.72101479656	59
5	1716	204.571199239423	60
5	1738	206.410270989514	61
5	1798	214.202539169941	62
5	1828	217.845596399154	63
5	1850	219.597201346658	64
5	1865	220.956006369521	65
5	1900	223.993799454397	66
5	1918	225.826568087719	67
5	1936	227.787509164969	68
5	1954	229.089355883003	69
5	1984	233.270772742312	70
5	2020	236.153769743906	71
5	2038	237.247944398696	72
5	2053	238.491009107409	73

