version 2
run General-3-20231008-06:23:24-15638
attr configname General
attr datetime 20231008-06:23:24
attr experiment General
attr inifile omnetpp.ini
attr iterationvars ""
attr iterationvarsf ""
attr measurement ""
attr network Network1
attr processid 15638
attr repetition 3
attr replication #3
attr resultdir results
attr runnumber 3
attr seedset 3
param Network1.node[*].transmissionTime "uniform(1s, 2s)"
param Network1.node[*].delayTime "uniform(0.01s, 0.2s)"
param Network1.node[*].processingTime exponential(0.01s)
param Network1.node[*].lossProbability 0.25
param Reliability.node[*].transmissionTime "uniform(1s, 2s)"
param Reliability.node[*].delayTime "uniform(0.01s, 0.2s)"
param Reliability.node[*].processingTime exponential(0.01s)
param Reliability.node[*].lossProbability 0.0

vector 0 Network1.node[0] txVector ETV
vector 1 Network1.node[1] txVector ETV
vector 2 Network1.node[3] txVector ETV
vector 3 Network1.node[2] txVector ETV
vector 4 Network1.node[4] txVector ETV
vector 5 Network1.node[5] rxVector ETV
0	1	0.114651601831	0
0	15	1.185376482154	1
0	17	2.433264783886	2
0	35	3.526816279464	3
0	53	5.500464550522	4
0	55	6.758049842273	5
0	73	8.65111494863	6
0	79	10.438253449114	7
0	97	11.754020697508	8
0	115	13.128145425651	9
0	133	14.585477600876	10
0	135	15.887741214433	11
0	153	17.694763889374	12
0	155	18.972086938401	13
0	157	20.148149053636	14
0	159	22.138450242183	15
0	161	23.831100858585	16
0	179	25.583240888617	17
0	197	27.154525633506	18
0	199	28.699908250315	19
0	201	30.527930367343	20
0	219	31.761622376578	21
0	237	33.03042970535	22
0	239	34.298377460173	23
0	241	35.555583838212	24
0	259	36.832225384961	25
0	261	37.961883768977	26
0	279	39.821937231885	27
0	297	41.518687219664	28
0	299	42.92458620372	29
0	317	44.463049895435	30
0	319	45.622697053782	31
0	337	47.442239137438	32
0	355	48.805315417076	33
0	373	50.186244288298	34
0	375	51.208340102645	35
0	393	52.430716422225	36
0	395	54.331487227303	37
0	413	55.692571002363	38
0	431	57.309276289145	39
0	433	58.340205485538	40
0	451	59.572303874955	41
0	469	61.302463413287	42
0	487	62.940516294749	43
0	489	64.52444638738	44
0	491	65.625024100138	45
0	509	67.126947443538	46
0	527	69.121467470263	47
0	541	70.756240689267	48
0	547	72.579474246899	49
0	565	74.253804622056	50
0	583	75.485588545051	51
0	585	77.078062506464	52
0	603	78.97512611428	53
0	621	80.957930884861	54
0	623	82.407769810014	55
0	629	83.820200876404	56
0	631	85.542643078907	57
0	633	87.17066856411	58
0	635	88.579258408236	59
0	653	89.74385795633	60
0	667	91.425624698239	61
0	685	92.918476020057	62
0	703	94.457081345214	63
0	705	95.785317698099	64
0	723	96.87156131568	65
0	725	97.954353341205	66
0	743	99.175026994735	67
0	745	100.212163948758	68
0	763	102.210511027441	69
0	765	103.498485687493	70
0	783	104.526123295144	71
0	801	105.64772060055	72
0	819	107.313904386551	73
0	837	108.63058717882	74
0	847	110.329516569224	75
0	849	112.253383291258	76
0	867	113.293177444326	77
0	885	115.252742744122	78
0	903	116.423353517732	79
0	913	117.719948937722	80
0	931	119.351438894706	81
0	949	121.289677319188	82
0	967	123.250541537606	83
0	985	124.353018304637	84
0	1003	126.197831777927	85
0	1021	127.739620940133	86
0	1039	129.416894196372	87
0	1041	130.854929032342	88
0	1059	132.351996561352	89
0	1077	133.633245544581	90
0	1095	135.532936112562	91
0	1113	136.636782308414	92
0	1115	137.955614418329	93
0	1133	139.093017559571	94
0	1151	140.254597730076	95
0	1169	142.035394048391	96
0	1171	143.251086234421	97
0	1173	144.708814173544	98
0	1187	146.654274982007	99
0	1205	148.180935193857	100
0	1223	150.05040085905	101
0	1241	151.368199304983	102
0	1243	152.445601836152	103
0	1261	153.954716073654	104
0	1279	155.904361633889	105
0	1285	157.609368938559	106
0	1303	158.837351689187	107
0	1321	160.436463815698	108
0	1339	161.551762459406	109
0	1341	163.348647077174	110
0	1359	165.171686265224	111
0	1373	166.765113934714	112
0	1391	168.144130023967	113
0	1393	169.481386675339	114
0	1411	171.411249919634	115
0	1417	172.494830020077	116
0	1419	173.984065579788	117
0	1437	175.526265768639	118
0	1439	176.825270863555	119
0	1457	178.29143878266	120
0	1463	180.259497447012	121
0	1465	181.422504139205	122
0	1483	183.318782558038	123
0	1497	184.80416997669	124
0	1515	186.313346082649	125
0	1533	187.65994820588	126
0	1551	189.415540394445	127
0	1557	190.529567426841	128
0	1575	192.479505068229	129
0	1589	193.999499194629	130
0	1607	195.809718060845	131
0	1625	197.201369341768	132
0	1627	198.704935917237	133
0	1645	200.601798451112	134
0	1663	202.062754130063	135
0	1681	203.962010725241	136
0	1695	205.605042344497	137
0	1713	206.79602873612	138
0	1715	208.535479473488	139
0	1733	209.945033818323	140
0	1751	211.443311767725	141
0	1769	212.898829408295	142
0	1787	214.503199339916	143
0	1805	216.317810968335	144
0	1819	217.529666537491	145
0	1821	218.552006034718	146
0	1839	220.382046536149	147
0	1857	221.948698900712	148
0	1871	223.406305179072	149
0	1873	225.032202972637	150
0	1879	226.470161271819	151
0	1893	228.451008982795	152
0	1911	229.89002102737	153
0	1925	231.497191496963	154
0	1943	232.887155742223	155
0	1961	234.373085002719	156
0	1979	235.524269925735	157
0	1997	237.269268339339	158
0	1999	239.117935064088	159
1	3	0.14297423212	0
1	3	0.14297423212	1
1	3	0.14297423212	2
1	19	2.455133438848	3
1	19	2.455133438848	4
1	19	2.455133438848	5
1	37	3.541963957342	6
1	37	3.541963957342	7
1	37	3.541963957342	8
1	57	6.780723300996	9
1	57	6.780723300996	10
1	57	6.780723300996	11
1	75	8.673617411181	12
1	75	8.673617411181	13
1	75	8.673617411181	14
1	81	10.456526410383	15
1	81	10.456526410383	16
1	81	10.456526410383	17
1	99	11.764802476548	18
1	99	11.764802476548	19
1	99	11.764802476548	20
1	117	13.154666908841	21
1	117	13.154666908841	22
1	117	13.154666908841	23
1	137	15.901590416043	24
1	137	15.901590416043	25
1	137	15.901590416043	26
1	163	23.842336291166	27
1	163	23.842336291166	28
1	163	23.842336291166	29
1	181	25.614536516701	30
1	181	25.614536516701	31
1	181	25.614536516701	32
1	203	30.540197838308	33
1	203	30.540197838308	34
1	203	30.540197838308	35
1	221	31.793417039966	36
1	221	31.793417039966	37
1	221	31.793417039966	38
1	243	35.568483906078	39
1	243	35.568483906078	40
1	243	35.568483906078	41
1	263	37.974347863915	42
1	263	37.974347863915	43
1	263	37.974347863915	44
1	281	39.845736686254	45
1	281	39.845736686254	46
1	281	39.845736686254	47
1	301	42.94507223978	48
1	301	42.94507223978	49
1	301	42.94507223978	50
1	321	45.63629955694	51
1	321	45.63629955694	52
1	321	45.63629955694	53
1	339	47.46833638333	54
1	339	47.46833638333	55
1	339	47.46833638333	56
1	357	48.820556501559	57
1	357	48.820556501559	58
1	357	48.820556501559	59
1	377	51.222752253896	60
1	377	51.222752253896	61
1	377	51.222752253896	62
1	397	54.363034454612	63
1	397	54.363034454612	64
1	397	54.363034454612	65
1	415	55.741240186652	66
1	415	55.741240186652	67
1	415	55.741240186652	68
1	435	58.350333860949	69
1	435	58.350333860949	70
1	435	58.350333860949	71
1	453	59.591853916552	72
1	453	59.591853916552	73
1	453	59.591853916552	74
1	471	61.323109404137	75
1	471	61.323109404137	76
1	471	61.323109404137	77
1	493	65.651168415433	78
1	493	65.651168415433	79
1	493	65.651168415433	80
1	511	67.141014847322	81
1	511	67.141014847322	82
1	511	67.141014847322	83
1	529	69.135627663472	84
1	529	69.135627663472	85
1	529	69.135627663472	86
1	543	70.766473610689	87
1	543	70.766473610689	88
1	543	70.766473610689	89
1	549	72.613372905079	90
1	549	72.613372905079	91
1	549	72.613372905079	92
1	567	74.286477669011	93
1	567	74.286477669011	94
1	567	74.286477669011	95
1	587	77.096010497101	96
1	587	77.096010497101	97
1	587	77.096010497101	98
1	605	78.994721116881	99
1	605	78.994721116881	100
1	605	78.994721116881	101
1	625	82.451800866633	102
1	625	82.451800866633	103
1	625	82.451800866633	104
1	637	88.593781233083	105
1	637	88.593781233083	106
1	637	88.593781233083	107
1	655	89.760612233569	108
1	655	89.760612233569	109
1	655	89.760612233569	110
1	669	91.445803236882	111
1	669	91.445803236882	112
1	669	91.445803236882	113
1	687	92.941135479227	114
1	687	92.941135479227	115
1	687	92.941135479227	116
1	707	95.799513530094	117
1	707	95.799513530094	118
1	707	95.799513530094	119
1	727	97.983399017327	120
1	727	97.983399017327	121
1	727	97.983399017327	122
1	747	100.232260553974	123
1	747	100.232260553974	124
1	747	100.232260553974	125
1	767	103.509572513458	126
1	767	103.509572513458	127
1	767	103.509572513458	128
1	785	104.548573133324	129
1	785	104.548573133324	130
1	785	104.548573133324	131
1	803	105.658650320849	132
1	803	105.658650320849	133
1	803	105.658650320849	134
1	821	107.324669781399	135
1	821	107.324669781399	136
1	821	107.324669781399	137
1	839	108.6549330473	138
1	839	108.6549330473	139
1	839	108.6549330473	140
1	851	112.28534037769	141
1	851	112.28534037769	142
1	851	112.28534037769	143
1	869	113.311305766506	144
1	869	113.311305766506	145
1	869	113.311305766506	146
1	887	115.273567155598	147
1	887	115.273567155598	148
1	887	115.273567155598	149
1	905	116.443452871991	150
1	905	116.443452871991	151
1	905	116.443452871991	152
1	915	117.741394196919	153
1	915	117.741394196919	154
1	915	117.741394196919	155
1	933	119.364971295155	156
1	933	119.364971295155	157
1	933	119.364971295155	158
1	951	121.316217072749	159
1	951	121.316217072749	160
1	951	121.316217072749	161
1	969	123.273139257128	162
1	969	123.273139257128	163
1	969	123.273139257128	164
1	987	124.369800839787	165
1	987	124.369800839787	166
1	987	124.369800839787	167
1	1005	126.229859620744	168
1	1005	126.229859620744	169
1	1005	126.229859620744	170
1	1023	127.755392960396	171
1	1023	127.755392960396	172
1	1023	127.755392960396	173
1	1043	130.892973192706	174
1	1043	130.892973192706	175
1	1043	130.892973192706	176
1	1061	132.364567710593	177
1	1061	132.364567710593	178
1	1061	132.364567710593	179
1	1079	133.648466478086	180
1	1079	133.648466478086	181
1	1079	133.648466478086	182
1	1097	135.567987194002	183
1	1097	135.567987194002	184
1	1097	135.567987194002	185
1	1117	137.976720004712	186
1	1117	137.976720004712	187
1	1117	137.976720004712	188
1	1135	139.119607880698	189
1	1135	139.119607880698	190
1	1135	139.119607880698	191
1	1153	140.274440750563	192
1	1153	140.274440750563	193
1	1153	140.274440750563	194
1	1175	144.726206098582	195
1	1175	144.726206098582	196
1	1175	144.726206098582	197
1	1189	146.670260083211	198
1	1189	146.670260083211	199
1	1189	146.670260083211	200
1	1207	148.223260184988	201
1	1207	148.223260184988	202
1	1207	148.223260184988	203
1	1225	150.078424312734	204
1	1225	150.078424312734	205
1	1225	150.078424312734	206
1	1245	152.457167835946	207
1	1245	152.457167835946	208
1	1245	152.457167835946	209
1	1263	153.974442098399	210
1	1263	153.974442098399	211
1	1263	153.974442098399	212
1	1281	155.930047407959	213
1	1281	155.930047407959	214
1	1281	155.930047407959	215
1	1287	157.657878370254	216
1	1287	157.657878370254	217
1	1287	157.657878370254	218
1	1305	158.880571334786	219
1	1305	158.880571334786	220
1	1305	158.880571334786	221
1	1323	160.456937234042	222
1	1323	160.456937234042	223
1	1323	160.456937234042	224
1	1343	163.362978061837	225
1	1343	163.362978061837	226
1	1343	163.362978061837	227
1	1361	165.185543248356	228
1	1361	165.185543248356	229
1	1361	165.185543248356	230
1	1375	166.781083886463	231
1	1375	166.781083886463	232
1	1375	166.781083886463	233
1	1395	169.509990360479	234
1	1395	169.509990360479	235
1	1395	169.509990360479	236
1	1413	171.426750287626	237
1	1413	171.426750287626	238
1	1413	171.426750287626	239
1	1421	173.998580615307	240
1	1421	173.998580615307	241
1	1421	173.998580615307	242
1	1441	176.838295489419	243
1	1441	176.838295489419	244
1	1441	176.838295489419	245
1	1459	178.302969342847	246
1	1459	178.302969342847	247
1	1459	178.302969342847	248
1	1467	181.435541877953	249
1	1467	181.435541877953	250
1	1467	181.435541877953	251
1	1485	183.331688483297	252
1	1485	183.331688483297	253
1	1485	183.331688483297	254
1	1499	184.823460660944	255
1	1499	184.823460660944	256
1	1499	184.823460660944	257
1	1517	186.375100264379	258
1	1517	186.375100264379	259
1	1517	186.375100264379	260
1	1535	187.676359156301	261
1	1535	187.676359156301	262
1	1535	187.676359156301	263
1	1553	189.426128850047	264
1	1553	189.426128850047	265
1	1553	189.426128850047	266
1	1559	190.55327163149	267
1	1559	190.55327163149	268
1	1559	190.55327163149	269
1	1577	192.505873149723	270
1	1577	192.505873149723	271
1	1577	192.505873149723	272
1	1591	194.023642219858	273
1	1591	194.023642219858	274
1	1591	194.023642219858	275
1	1609	195.822021111167	276
1	1609	195.822021111167	277
1	1609	195.822021111167	278
1	1629	198.719933403932	279
1	1629	198.719933403932	280
1	1629	198.719933403932	281
1	1647	200.638821704346	282
1	1647	200.638821704346	283
1	1647	200.638821704346	284
1	1665	202.075107795821	285
1	1665	202.075107795821	286
1	1665	202.075107795821	287
1	1683	203.981443852831	288
1	1683	203.981443852831	289
1	1683	203.981443852831	290
1	1697	205.633360457144	291
1	1697	205.633360457144	292
1	1697	205.633360457144	293
1	1717	208.545590130182	294
1	1717	208.545590130182	295
1	1717	208.545590130182	296
1	1735	209.965371834176	297
1	1735	209.965371834176	298
1	1735	209.965371834176	299
1	1753	211.455538110314	300
1	1753	211.455538110314	301
1	1753	211.455538110314	302
1	1771	212.92036020167	303
1	1771	212.92036020167	304
1	1771	212.92036020167	305
1	1789	214.516178787048	306
1	1789	214.516178787048	307
1	1789	214.516178787048	308
1	1807	216.328355675634	309
1	1807	216.328355675634	310
1	1807	216.328355675634	311
1	1823	218.575397789483	312
1	1823	218.575397789483	313
1	1823	218.575397789483	314
1	1841	220.395531440342	315
1	1841	220.395531440342	316
1	1841	220.395531440342	317
1	1859	221.980080628011	318
1	1859	221.980080628011	319
1	1859	221.980080628011	320
1	1875	225.047663272184	321
1	1875	225.047663272184	322
1	1875	225.047663272184	323
1	1881	226.480283550993	324
1	1881	226.480283550993	325
1	1881	226.480283550993	326
1	1895	228.490534630255	327
1	1895	228.490534630255	328
1	1895	228.490534630255	329
1	1913	229.906425551756	330
1	1913	229.906425551756	331
1	1913	229.906425551756	332
1	1927	231.538965925366	333
1	1927	231.538965925366	334
1	1927	231.538965925366	335
1	1945	232.905599170315	336
1	1945	232.905599170315	337
1	1945	232.905599170315	338
1	1963	234.385498586144	339
1	1963	234.385498586144	340
1	1963	234.385498586144	341
1	1981	235.536923973198	342
1	1981	235.536923973198	343
1	1981	235.536923973198	344
1	2001	239.140354644782	345
1	2001	239.140354644782	346
1	2001	239.140354644782	347
2	7	0.161397929952	0
2	7	0.161397929952	1
2	7	0.161397929952	2
2	23	2.47116965401	3
2	23	2.47116965401	4
2	23	2.47116965401	5
2	42	3.563777526158	6
2	42	3.563777526158	7
2	42	3.563777526158	8
2	61	6.792263176772	9
2	61	6.792263176772	10
2	61	6.792263176772	11
2	86	10.469976595735	12
2	86	10.469976595735	13
2	86	10.469976595735	14
2	108	11.793659616914	15
2	108	11.793659616914	16
2	108	11.793659616914	17
2	122	13.175697173159	18
2	122	13.175697173159	19
2	122	13.175697173159	20
2	141	15.918176826342	21
2	141	15.918176826342	22
2	141	15.918176826342	23
2	167	23.863291201044	24
2	167	23.863291201044	25
2	167	23.863291201044	26
2	185	25.63819172594	27
2	185	25.63819172594	28
2	185	25.63819172594	29
2	207	30.569234010246	30
2	207	30.569234010246	31
2	207	30.569234010246	32
2	225	31.805367623853	33
2	225	31.805367623853	34
2	225	31.805367623853	35
2	247	35.581696715352	36
2	247	35.581696715352	37
2	247	35.581696715352	38
2	267	37.986211563806	39
2	267	37.986211563806	40
2	267	37.986211563806	41
2	285	39.857456838682	42
2	285	39.857456838682	43
2	285	39.857456838682	44
2	305	42.9567415286	45
2	305	42.9567415286	46
2	305	42.9567415286	47
2	325	45.649672540515	48
2	325	45.649672540515	49
2	325	45.649672540515	50
2	343	47.48161163159	51
2	343	47.48161163159	52
2	343	47.48161163159	53
2	361	48.836336893433	54
2	361	48.836336893433	55
2	361	48.836336893433	56
2	381	51.234451391546	57
2	381	51.234451391546	58
2	381	51.234451391546	59
2	402	54.373830259132	60
2	402	54.373830259132	61
2	402	54.373830259132	62
2	420	55.760882834261	63
2	420	55.760882834261	64
2	420	55.760882834261	65
2	440	58.366524433033	66
2	440	58.366524433033	67
2	440	58.366524433033	68
2	457	59.615473033492	69
2	457	59.615473033492	70
2	457	59.615473033492	71
2	475	61.340690808969	72
2	475	61.340690808969	73
2	475	61.340690808969	74
2	497	65.679425926842	75
2	497	65.679425926842	76
2	497	65.679425926842	77
2	515	67.151444648038	78
2	515	67.151444648038	79
2	515	67.151444648038	80
2	533	69.153983564542	81
2	533	69.153983564542	82
2	533	69.153983564542	83
2	553	72.629856395563	84
2	553	72.629856395563	85
2	553	72.629856395563	86
2	575	74.321712556746	87
2	575	74.321712556746	88
2	575	74.321712556746	89
2	592	77.115401676153	90
2	592	77.115401676153	91
2	592	77.115401676153	92
2	609	79.012555763292	93
2	609	79.012555763292	94
2	609	79.012555763292	95
2	641	88.610450399055	96
2	641	88.610450399055	97
2	641	88.610450399055	98
2	663	89.796161257059	99
2	663	89.796161257059	100
2	663	89.796161257059	101
2	678	91.47936151425	102
2	678	91.47936151425	103
2	678	91.47936151425	104
2	691	92.956572290058	105
2	691	92.956572290058	106
2	691	92.956572290058	107
2	711	95.81003663053	108
2	711	95.81003663053	109
2	711	95.81003663053	110
2	731	97.99566937422	111
2	731	97.99566937422	112
2	731	97.99566937422	113
2	751	100.245712693874	114
2	751	100.245712693874	115
2	751	100.245712693874	116
2	776	103.557925517161	117
2	776	103.557925517161	118
2	776	103.557925517161	119
2	790	104.565318481981	120
2	790	104.565318481981	121
2	790	104.565318481981	122
2	815	105.712418372934	123
2	815	105.712418372934	124
2	815	105.712418372934	125
2	829	107.350252992006	126
2	829	107.350252992006	127
2	829	107.350252992006	128
2	843	108.670850498143	129
2	843	108.670850498143	130
2	843	108.670850498143	131
2	855	112.296332815734	132
2	855	112.296332815734	133
2	855	112.296332815734	134
2	881	113.375137495835	135
2	881	113.375137495835	136
2	881	113.375137495835	137
2	891	115.283715396806	138
2	891	115.283715396806	139
2	891	115.283715396806	140
2	909	116.469174596543	141
2	909	116.469174596543	142
2	909	116.469174596543	143
2	927	117.807480306426	144
2	927	117.807480306426	145
2	927	117.807480306426	146
2	942	119.401603004437	147
2	942	119.401603004437	148
2	942	119.401603004437	149
2	955	121.350241297226	150
2	955	121.350241297226	151
2	955	121.350241297226	152
2	973	123.284936206342	153
2	973	123.284936206342	154
2	973	123.284936206342	155
2	992	124.387756342088	156
2	992	124.387756342088	157
2	992	124.387756342088	158
2	1010	126.252828943351	159
2	1010	126.252828943351	160
2	1010	126.252828943351	161
2	1028	127.772904222423	162
2	1028	127.772904222423	163
2	1028	127.772904222423	164
2	1048	130.917353382742	165
2	1048	130.917353382742	166
2	1048	130.917353382742	167
2	1065	132.378071600534	168
2	1065	132.378071600534	169
2	1065	132.378071600534	170
2	1083	133.662848028623	171
2	1083	133.662848028623	172
2	1083	133.662848028623	173
2	1101	135.579350246353	174
2	1101	135.579350246353	175
2	1101	135.579350246353	176
2	1125	138.005486768407	177
2	1125	138.005486768407	178
2	1125	138.005486768407	179
2	1143	139.14396954697	180
2	1143	139.14396954697	181
2	1143	139.14396954697	182
2	1157	140.289581906659	183
2	1157	140.289581906659	184
2	1157	140.289581906659	185
2	1180	144.743213267443	186
2	1180	144.743213267443	187
2	1180	144.743213267443	188
2	1194	146.692229622306	189
2	1194	146.692229622306	190
2	1194	146.692229622306	191
2	1212	148.255416072698	192
2	1212	148.255416072698	193
2	1212	148.255416072698	194
2	1229	150.101913485842	195
2	1229	150.101913485842	196
2	1229	150.101913485842	197
2	1249	152.468138752316	198
2	1249	152.468138752316	199
2	1249	152.468138752316	200
2	1271	153.997270152684	201
2	1271	153.997270152684	202
2	1271	153.997270152684	203
2	1291	157.675472860839	204
2	1291	157.675472860839	205
2	1291	157.675472860839	206
2	1317	158.937757449382	207
2	1317	158.937757449382	208
2	1317	158.937757449382	209
2	1335	160.504351971628	210
2	1335	160.504351971628	211
2	1335	160.504351971628	212
2	1347	163.381235601523	213
2	1347	163.381235601523	214
2	1347	163.381235601523	215
2	1365	165.228939836696	216
2	1365	165.228939836696	217
2	1365	165.228939836696	218
2	1379	166.795070994325	219
2	1379	166.795070994325	220
2	1379	166.795070994325	221
2	1399	169.522051912093	222
2	1399	169.522051912093	223
2	1399	169.522051912093	224
2	1433	174.045228887271	225
2	1433	174.045228887271	226
2	1433	174.045228887271	227
2	1445	176.850895047583	228
2	1445	176.850895047583	229
2	1445	176.850895047583	230
2	1471	181.449039823924	231
2	1471	181.449039823924	232
2	1471	181.449039823924	233
2	1489	183.342188246409	234
2	1489	183.342188246409	235
2	1489	183.342188246409	236
2	1503	184.837746788495	237
2	1503	184.837746788495	238
2	1503	184.837746788495	239
2	1526	186.410840700794	240
2	1526	186.410840700794	241
2	1526	186.410840700794	242
2	1539	187.693236034641	243
2	1539	187.693236034641	244
2	1539	187.693236034641	245
2	1567	190.580445510133	246
2	1567	190.580445510133	247
2	1567	190.580445510133	248
2	1581	192.516961322481	249
2	1581	192.516961322481	250
2	1581	192.516961322481	251
2	1595	194.042487644881	252
2	1595	194.042487644881	253
2	1595	194.042487644881	254
2	1613	195.840564677995	255
2	1613	195.840564677995	256
2	1613	195.840564677995	257
2	1634	198.739102614632	258
2	1634	198.739102614632	259
2	1634	198.739102614632	260
2	1652	200.660411462948	261
2	1652	200.660411462948	262
2	1652	200.660411462948	263
2	1670	202.104416232228	264
2	1670	202.104416232228	265
2	1670	202.104416232228	266
2	1687	204.007661175203	267
2	1687	204.007661175203	268
2	1687	204.007661175203	269
2	1701	205.649033036002	270
2	1701	205.649033036002	271
2	1701	205.649033036002	272
2	1722	208.556151250649	273
2	1722	208.556151250649	274
2	1722	208.556151250649	275
2	1739	209.979032640417	276
2	1739	209.979032640417	277
2	1739	209.979032640417	278
2	1758	211.468924374273	279
2	1758	211.468924374273	280
2	1758	211.468924374273	281
2	1775	212.951590655364	282
2	1775	212.951590655364	283
2	1775	212.951590655364	284
2	1798	214.552506944009	285
2	1798	214.552506944009	286
2	1798	214.552506944009	287
2	1827	218.589362387872	288
2	1827	218.589362387872	289
2	1827	218.589362387872	290
2	1845	220.410893157006	291
2	1845	220.410893157006	292
2	1845	220.410893157006	293
2	1867	222.017047168393	294
2	1867	222.017047168393	295
2	1867	222.017047168393	296
2	1904	228.525395714181	297
2	1904	228.525395714181	298
2	1904	228.525395714181	299
2	1917	229.94280393366	300
2	1917	229.94280393366	301
2	1917	229.94280393366	302
2	1939	231.617192310853	303
2	1939	231.617192310853	304
2	1939	231.617192310853	305
2	1954	232.940389974507	306
2	1954	232.940389974507	307
2	1954	232.940389974507	308
2	1972	234.415200478614	309
2	1972	234.415200478614	310
2	1972	234.415200478614	311
2	1993	235.612669787604	312
2	1993	235.612669787604	313
2	1993	235.612669787604	314
2	2005	239.161031337412	315
2	2005	239.161031337412	316
2	2005	239.161031337412	317
3	11	0.194059795375	0
3	11	0.194059795375	1
3	11	0.194059795375	2
3	31	2.502323006698	3
3	31	2.502323006698	4
3	31	2.502323006698	5
3	41	3.555298077787	6
3	41	3.555298077787	7
3	41	3.555298077787	8
3	66	6.825576531552	9
3	66	6.825576531552	10
3	66	6.825576531552	11
3	85	10.469663051806	12
3	85	10.469663051806	13
3	85	10.469663051806	14
3	103	11.777051160857	15
3	103	11.777051160857	16
3	103	11.777051160857	17
3	121	13.169344572081	18
3	121	13.169344572081	19
3	121	13.169344572081	20
3	149	15.97023442762	21
3	149	15.97023442762	22
3	149	15.97023442762	23
3	171	23.881078680353	24
3	171	23.881078680353	25
3	171	23.881078680353	26
3	186	25.642994652176	27
3	186	25.642994652176	28
3	186	25.642994652176	29
3	212	30.585988536689	30
3	212	30.585988536689	31
3	212	30.585988536689	32
3	226	31.805875863373	33
3	226	31.805875863373	34
3	226	31.805875863373	35
3	248	35.585003541921	36
3	248	35.585003541921	37
3	248	35.585003541921	38
3	271	38.002516324833	39
3	271	38.002516324833	40
3	271	38.002516324833	41
3	289	39.869249140439	42
3	289	39.869249140439	43
3	289	39.869249140439	44
3	309	42.976045202529	45
3	309	42.976045202529	46
3	309	42.976045202529	47
3	329	45.663055977088	48
3	329	45.663055977088	49
3	329	45.663055977088	50
3	344	47.482114683243	51
3	344	47.482114683243	52
3	344	47.482114683243	53
3	365	48.850539034733	54
3	365	48.850539034733	55
3	365	48.850539034733	56
3	382	51.240025176702	57
3	382	51.240025176702	58
3	382	51.240025176702	59
3	401	54.373744581452	60
3	401	54.373744581452	61
3	401	54.373744581452	62
3	419	55.755905268159	63
3	419	55.755905268159	64
3	419	55.755905268159	65
3	439	58.360641663412	66
3	439	58.360641663412	67
3	439	58.360641663412	68
3	462	59.634561301086	69
3	462	59.634561301086	70
3	462	59.634561301086	71
3	483	61.375603411228	72
3	483	61.375603411228	73
3	483	61.375603411228	74
3	501	65.724907449676	75
3	501	65.724907449676	76
3	501	65.724907449676	77
3	519	67.168642598848	78
3	519	67.168642598848	79
3	519	67.168642598848	80
3	554	72.636665400419	81
3	554	72.636665400419	82
3	554	72.636665400419	83
3	571	74.299357009253	84
3	571	74.299357009253	85
3	571	74.299357009253	86
3	591	77.10676761988	87
3	591	77.10676761988	88
3	591	77.10676761988	89
3	610	79.015237702749	90
3	610	79.015237702749	91
3	610	79.015237702749	92
3	645	88.621151740255	93
3	645	88.621151740255	94
3	645	88.621151740255	95
3	659	89.785293992256	96
3	659	89.785293992256	97
3	659	89.785293992256	98
3	673	91.456204807458	99
3	673	91.456204807458	100
3	673	91.456204807458	101
3	692	92.959197133872	102
3	692	92.959197133872	103
3	692	92.959197133872	104
3	715	95.820103797791	105
3	715	95.820103797791	106
3	715	95.820103797791	107
3	732	98.003057169826	108
3	732	98.003057169826	109
3	732	98.003057169826	110
3	752	100.254230683029	111
3	752	100.254230683029	112
3	752	100.254230683029	113
3	771	103.524382351004	114
3	771	103.524382351004	115
3	771	103.524382351004	116
3	789	104.563092945312	117
3	789	104.563092945312	118
3	789	104.563092945312	119
3	807	105.681742681786	120
3	807	105.681742681786	121
3	807	105.681742681786	122
3	825	107.33830981854	123
3	825	107.33830981854	124
3	825	107.33830981854	125
3	859	112.308290105505	126
3	859	112.308290105505	127
3	859	112.308290105505	128
3	873	113.327241996543	129
3	873	113.327241996543	130
3	873	113.327241996543	131
3	892	115.291731701993	132
3	892	115.291731701993	133
3	892	115.291731701993	134
3	919	117.752523251968	135
3	919	117.752523251968	136
3	919	117.752523251968	137
3	937	119.3817059345	138
3	937	119.3817059345	139
3	937	119.3817059345	140
3	959	121.361615648124	141
3	959	121.361615648124	142
3	959	121.361615648124	143
3	974	123.285836991966	144
3	974	123.285836991966	145
3	974	123.285836991966	146
3	991	124.387319090756	147
3	991	124.387319090756	148
3	991	124.387319090756	149
3	1009	126.244048283509	150
3	1009	126.244048283509	151
3	1009	126.244048283509	152
3	1027	127.767106130384	153
3	1027	127.767106130384	154
3	1027	127.767106130384	155
3	1047	130.914804588242	156
3	1047	130.914804588242	157
3	1047	130.914804588242	158
3	1066	132.380959739892	159
3	1066	132.380959739892	160
3	1066	132.380959739892	161
3	1091	133.696745327494	162
3	1091	133.696745327494	163
3	1091	133.696745327494	164
3	1109	135.616804238729	165
3	1109	135.616804238729	166
3	1109	135.616804238729	167
3	1121	137.99291745255	168
3	1121	137.99291745255	169
3	1121	137.99291745255	170
3	1139	139.132425293754	171
3	1139	139.132425293754	172
3	1139	139.132425293754	173
3	1161	140.300696653014	174
3	1161	140.300696653014	175
3	1161	140.300696653014	176
3	1179	144.742084381415	177
3	1179	144.742084381415	178
3	1179	144.742084381415	179
3	1193	146.689851959623	180
3	1193	146.689851959623	181
3	1193	146.689851959623	182
3	1211	148.248922113473	183
3	1211	148.248922113473	184
3	1211	148.248922113473	185
3	1230	150.105728251884	186
3	1230	150.105728251884	187
3	1230	150.105728251884	188
3	1254	152.489662555004	189
3	1254	152.489662555004	190
3	1254	152.489662555004	191
3	1267	153.986020588022	192
3	1267	153.986020588022	193
3	1267	153.986020588022	194
3	1299	157.705750833427	195
3	1299	157.705750833427	196
3	1299	157.705750833427	197
3	1309	158.897836001582	198
3	1309	158.897836001582	199
3	1309	158.897836001582	200
3	1327	160.466982520158	201
3	1327	160.466982520158	202
3	1327	160.466982520158	203
3	1351	163.392123895355	204
3	1351	163.392123895355	205
3	1351	163.392123895355	206
3	1369	165.24221577128	207
3	1369	165.24221577128	208
3	1369	165.24221577128	209
3	1383	166.80791065352	210
3	1383	166.80791065352	211
3	1383	166.80791065352	212
3	1400	169.524970856413	213
3	1400	169.524970856413	214
3	1400	169.524970856413	215
3	1425	174.012412984123	216
3	1425	174.012412984123	217
3	1425	174.012412984123	218
3	1449	176.861708658979	219
3	1449	176.861708658979	220
3	1449	176.861708658979	221
3	1472	181.454362499075	222
3	1472	181.454362499075	223
3	1472	181.454362499075	224
3	1493	183.355809884788	225
3	1493	183.355809884788	226
3	1493	183.355809884788	227
3	1508	184.860149157872	228
3	1508	184.860149157872	229
3	1508	184.860149157872	230
3	1521	186.386610224878	231
3	1521	186.386610224878	232
3	1521	186.386610224878	233
3	1543	187.710317263216	234
3	1543	187.710317263216	235
3	1543	187.710317263216	236
3	1563	190.563487454786	237
3	1563	190.563487454786	238
3	1563	190.563487454786	239
3	1582	192.519959356292	240
3	1582	192.519959356292	241
3	1582	192.519959356292	242
3	1599	194.08811033783	243
3	1599	194.08811033783	244
3	1599	194.08811033783	245
3	1614	195.844682023134	246
3	1614	195.844682023134	247
3	1614	195.844682023134	248
3	1633	198.73335100116	249
3	1633	198.73335100116	250
3	1633	198.73335100116	251
3	1651	200.652222407444	252
3	1651	200.652222407444	253
3	1651	200.652222407444	254
3	1669	202.097636875593	255
3	1669	202.097636875593	256
3	1669	202.097636875593	257
3	1691	204.025891218197	258
3	1691	204.025891218197	259
3	1691	204.025891218197	260
3	1702	205.651487904342	261
3	1702	205.651487904342	262
3	1702	205.651487904342	263
3	1721	208.555688359629	264
3	1721	208.555688359629	265
3	1721	208.555688359629	266
3	1740	209.986119379665	267
3	1740	209.986119379665	268
3	1740	209.986119379665	269
3	1757	211.467589739103	270
3	1757	211.467589739103	271
3	1757	211.467589739103	272
3	1776	212.953445589598	273
3	1776	212.953445589598	274
3	1776	212.953445589598	275
3	1793	214.529017605498	276
3	1793	214.529017605498	277
3	1793	214.529017605498	278
3	1811	216.391092758397	279
3	1811	216.391092758397	280
3	1811	216.391092758397	281
3	1828	218.589842529304	282
3	1828	218.589842529304	283
3	1828	218.589842529304	284
3	1849	220.435317445249	285
3	1849	220.435317445249	286
3	1849	220.435317445249	287
3	1863	221.997397036704	288
3	1863	221.997397036704	289
3	1863	221.997397036704	290
3	1885	226.504052797373	291
3	1885	226.504052797373	292
3	1885	226.504052797373	293
3	1899	228.503800322621	294
3	1899	228.503800322621	295
3	1899	228.503800322621	296
3	1921	229.96608971946	297
3	1921	229.96608971946	298
3	1921	229.96608971946	299
3	1931	231.570895784263	300
3	1931	231.570895784263	301
3	1931	231.570895784263	302
3	1949	232.917731541447	303
3	1949	232.917731541447	304
3	1949	232.917731541447	305
3	1967	234.402126988295	306
3	1967	234.402126988295	307
3	1967	234.402126988295	308
3	1985	235.582687454879	309
3	1985	235.582687454879	310
3	1985	235.582687454879	311
3	2009	239.181686034305	312
3	2009	239.181686034305	313
3	2009	239.181686034305	314
4	27	2.48553774241	0
4	27	2.48553774241	1
4	27	2.48553774241	2
4	46	3.568512812124	3
4	46	3.568512812124	4
4	46	3.568512812124	5
4	65	6.820955039499	6
4	65	6.820955039499	7
4	65	6.820955039499	8
4	93	10.490265553529	9
4	93	10.490265553529	10
4	93	10.490265553529	11
4	107	11.787963867397	12
4	107	11.787963867397	13
4	107	11.787963867397	14
4	129	13.187112460345	15
4	129	13.187112460345	16
4	129	13.187112460345	17
4	145	15.935220405363	18
4	145	15.935220405363	19
4	145	15.935220405363	20
4	172	23.885573193559	21
4	172	23.885573193559	22
4	172	23.885573193559	23
4	193	25.672722929679	24
4	193	25.672722929679	25
4	193	25.672722929679	26
4	211	30.580174819147	27
4	211	30.580174819147	28
4	211	30.580174819147	29
4	233	31.837660337497	30
4	233	31.837660337497	31
4	233	31.837660337497	32
4	255	35.623035058984	33
4	255	35.623035058984	34
4	255	35.623035058984	35
4	275	38.03510873926	36
4	275	38.03510873926	37
4	275	38.03510873926	38
4	293	39.885871775397	39
4	293	39.885871775397	40
4	293	39.885871775397	41
4	310	42.982784257133	42
4	310	42.982784257133	43
4	310	42.982784257133	44
4	333	45.693627261634	45
4	333	45.693627261634	46
4	333	45.693627261634	47
4	351	47.499364894143	48
4	351	47.499364894143	49
4	351	47.499364894143	50
4	369	48.876003998153	51
4	369	48.876003998153	52
4	369	48.876003998153	53
4	389	51.251438036229	54
4	389	51.251438036229	55
4	389	51.251438036229	56
4	409	54.389196449017	57
4	409	54.389196449017	58
4	409	54.389196449017	59
4	427	55.779836104524	60
4	427	55.779836104524	61
4	427	55.779836104524	62
4	447	58.419230252149	63
4	447	58.419230252149	64
4	447	58.419230252149	65
4	461	59.626914256782	66
4	461	59.626914256782	67
4	461	59.626914256782	68
4	479	61.365349973837	69
4	479	61.365349973837	70
4	479	61.365349973837	71
4	505	65.748213904062	72
4	505	65.748213904062	73
4	505	65.748213904062	74
4	520	67.172714660393	75
4	520	67.172714660393	76
4	520	67.172714660393	77
4	537	69.164527862627	78
4	537	69.164527862627	79
4	537	69.164527862627	80
4	558	72.645261719354	81
4	558	72.645261719354	82
4	558	72.645261719354	83
4	579	74.345507883416	84
4	579	74.345507883416	85
4	579	74.345507883416	86
4	596	77.117212428488	87
4	596	77.117212428488	88
4	596	77.117212428488	89
4	617	79.04284740295	90
4	617	79.04284740295	91
4	617	79.04284740295	92
4	646	88.625476672105	93
4	646	88.625476672105	94
4	646	88.625476672105	95
4	677	91.474724391036	96
4	677	91.474724391036	97
4	677	91.474724391036	98
4	699	92.995687546592	99
4	699	92.995687546592	100
4	699	92.995687546592	101
4	716	95.82502019926	102
4	716	95.82502019926	103
4	716	95.82502019926	104
4	736	98.009899864225	105
4	736	98.009899864225	106
4	736	98.009899864225	107
4	759	100.269799299166	108
4	759	100.269799299166	109
4	759	100.269799299166	110
4	775	103.556347861472	111
4	775	103.556347861472	112
4	775	103.556347861472	113
4	797	104.587507631105	114
4	797	104.587507631105	115
4	797	104.587507631105	116
4	811	105.697829865851	117
4	811	105.697829865851	118
4	811	105.697829865851	119
4	833	107.368331932312	120
4	833	107.368331932312	121
4	833	107.368331932312	122
4	860	112.318223864232	123
4	860	112.318223864232	124
4	860	112.318223864232	125
4	877	113.342209609107	126
4	877	113.342209609107	127
4	877	113.342209609107	128
4	899	115.320577501388	129
4	899	115.320577501388	130
4	899	115.320577501388	131
4	923	117.78214393534	132
4	923	117.78214393534	133
4	923	117.78214393534	134
4	941	119.396481797615	135
4	941	119.396481797615	136
4	941	119.396481797615	137
4	960	121.367384450463	138
4	960	121.367384450463	139
4	960	121.367384450463	140
4	981	123.300480581251	141
4	981	123.300480581251	142
4	981	123.300480581251	143
4	999	124.402517008248	144
4	999	124.402517008248	145
4	999	124.402517008248	146
4	1017	126.272308772506	147
4	1017	126.272308772506	148
4	1017	126.272308772506	149
4	1032	127.778753636787	150
4	1032	127.778753636787	151
4	1032	127.778753636787	152
4	1055	130.938039950191	153
4	1055	130.938039950191	154
4	1055	130.938039950191	155
4	1073	132.415473259114	156
4	1073	132.415473259114	157
4	1073	132.415473259114	158
4	1087	133.67599307086	159
4	1087	133.67599307086	160
4	1087	133.67599307086	161
4	1105	135.594068156679	162
4	1105	135.594068156679	163
4	1105	135.594068156679	164
4	1129	138.015529405538	165
4	1129	138.015529405538	166
4	1129	138.015529405538	167
4	1144	139.148787833364	168
4	1144	139.148787833364	169
4	1144	139.148787833364	170
4	1162	140.302676978381	171
4	1162	140.302676978381	172
4	1162	140.302676978381	173
4	1198	146.702198213805	174
4	1198	146.702198213805	175
4	1198	146.702198213805	176
4	1219	148.265655787566	177
4	1219	148.265655787566	178
4	1219	148.265655787566	179
4	1237	150.128284328094	180
4	1237	150.128284328094	181
4	1237	150.128284328094	182
4	1253	152.482533910487	183
4	1253	152.482533910487	184
4	1253	152.482533910487	185
4	1272	154.007088408842	186
4	1272	154.007088408842	187
4	1272	154.007088408842	188
4	1295	157.686605450567	189
4	1295	157.686605450567	190
4	1295	157.686605450567	191
4	1313	158.91573165654	192
4	1313	158.91573165654	193
4	1313	158.91573165654	194
4	1331	160.48408873534	195
4	1331	160.48408873534	196
4	1331	160.48408873534	197
4	1355	163.404890744219	198
4	1355	163.404890744219	199
4	1355	163.404890744219	200
4	1384	166.808520205692	201
4	1384	166.808520205692	202
4	1384	166.808520205692	203
4	1407	169.542673260442	204
4	1407	169.542673260442	205
4	1407	169.542673260442	206
4	1429	174.026123930563	207
4	1429	174.026123930563	208
4	1429	174.026123930563	209
4	1453	176.875635465446	210
4	1453	176.875635465446	211
4	1453	176.875635465446	212
4	1476	181.461311513818	213
4	1476	181.461311513818	214
4	1476	181.461311513818	215
4	1507	184.855462709669	216
4	1507	184.855462709669	217
4	1507	184.855462709669	218
4	1525	186.409653732101	219
4	1525	186.409653732101	220
4	1525	186.409653732101	221
4	1544	187.716427036304	222
4	1544	187.716427036304	223
4	1544	187.716427036304	224
4	1568	190.583067629221	225
4	1568	190.583067629221	226
4	1568	190.583067629221	227
4	1603	194.100267357123	228
4	1603	194.100267357123	229
4	1603	194.100267357123	230
4	1621	195.855376553447	231
4	1621	195.855376553447	232
4	1621	195.855376553447	233
4	1641	198.757937009219	234
4	1641	198.757937009219	235
4	1641	198.757937009219	236
4	1659	200.677590493794	237
4	1659	200.677590493794	238
4	1659	200.677590493794	239
4	1677	202.127368791507	240
4	1677	202.127368791507	241
4	1677	202.127368791507	242
4	1709	205.675290597724	243
4	1709	205.675290597724	244
4	1709	205.675290597724	245
4	1729	208.566921372984	246
4	1729	208.566921372984	247
4	1729	208.566921372984	248
4	1747	209.998817263627	249
4	1747	209.998817263627	250
4	1747	209.998817263627	251
4	1765	211.481367273818	252
4	1765	211.481367273818	253
4	1765	211.481367273818	254
4	1783	212.970638152665	255
4	1783	212.970638152665	256
4	1783	212.970638152665	257
4	1797	214.548677118451	258
4	1797	214.548677118451	259
4	1797	214.548677118451	260
4	1815	216.409935294114	261
4	1815	216.409935294114	262
4	1815	216.409935294114	263
4	1835	218.61085806435	264
4	1835	218.61085806435	265
4	1835	218.61085806435	266
4	1853	220.456790801828	267
4	1853	220.456790801828	268
4	1853	220.456790801828	269
4	1889	226.517085811111	270
4	1889	226.517085811111	271
4	1889	226.517085811111	272
4	1903	228.517228776031	273
4	1903	228.517228776031	274
4	1903	228.517228776031	275
4	1935	231.584104484247	276
4	1935	231.584104484247	277
4	1935	231.584104484247	278
4	1953	232.93930354591	279
4	1953	232.93930354591	280
4	1953	232.93930354591	281
4	1971	234.413362645905	282
4	1971	234.413362645905	283
4	1971	234.413362645905	284
4	1989	235.593992832061	285
4	1989	235.593992832061	286
4	1989	235.593992832061	287
5	30	2.49553774241	0
5	52	3.578512812124	1
5	69	6.830955039499	2
5	96	10.500265553529	3
5	111	11.797963867397	4
5	178	23.895573193559	5
5	196	25.682722929679	6
5	236	31.847660337497	7
5	296	39.895871775397	8
5	354	47.509364894143	9
5	392	51.261438036229	10
5	412	54.399196449017	11
5	450	58.429230252149	12
5	465	59.636914256782	13
5	508	65.758213904062	14
5	526	67.182714660393	15
5	540	69.174527862627	16
5	564	72.655261719354	17
5	582	74.355507883416	18
5	620	79.05284740295	19
5	652	88.635476672105	20
5	681	91.484724391036	21
5	722	95.83502019926	22
5	742	98.019899864225	23
5	762	100.279799299166	24
5	800	104.597507631105	25
5	814	105.707829865851	26
5	866	112.328223864232	27
5	880	113.352209609107	28
5	902	115.330577501388	29
5	926	117.79214393534	30
5	945	119.406481797615	31
5	966	121.377384450463	32
5	984	123.310480581251	33
5	1002	124.412517008248	34
5	1076	132.425473259114	35
5	1090	133.68599307086	36
5	1108	135.604068156679	37
5	1132	138.025529405538	38
5	1150	139.158787833364	39
5	1204	146.712198213805	40
5	1240	150.138284328094	41
5	1257	152.492533910487	42
5	1278	154.017088408842	43
5	1316	158.92573165654	44
5	1334	160.49408873534	45
5	1358	163.414890744219	46
5	1390	166.818520205692	47
5	1432	174.036123930563	48
5	1511	184.865462709669	49
5	1529	186.419653732101	50
5	1550	187.726427036304	51
5	1574	190.593067629221	52
5	1624	195.865376553447	53
5	1644	198.767937009219	54
5	1662	200.687590493794	55
5	1680	202.137368791507	56
5	1712	205.685290597724	57
5	1732	208.576921372984	58
5	1768	211.491367273818	59
5	1786	212.980638152665	60
5	1818	216.419935294114	61
5	1838	218.62085806435	62
5	1856	220.466790801828	63
5	1892	226.527085811111	64
5	1907	228.527228776031	65
5	1938	231.594104484247	66
5	1992	235.603992832061	67

