version 2
run General-0-20230921-21:39:14-6065
attr configname General
attr datetime 20230921-21:39:14
attr experiment General
attr inifile omnetpp.ini
attr iterationvars ""
attr iterationvarsf ""
attr measurement ""
attr network Network2
attr processid 6065
attr repetition 0
attr replication #0
attr resultdir results
attr runnumber 0
attr seedset 0
param Network2.node[*].transmissionTime "uniform(1s, 2s)"
param Network2.node[*].delayTime "uniform(0.01s, 0.2s)"
param Network2.node[*].processingTime exponential(0.01s)
param Network2.node[*].lossProbability 0.1

vector 0 Network2.node[0] txVector ETV
vector 1 Network2.node[1] txVector ETV
vector 2 Network2.node[3] txVector ETV
vector 3 Network2.node[2] txVector ETV
vector 4 Network2.node[6] txVector ETV
vector 5 Network2.node[4] txVector ETV
vector 6 Network2.node[5] rxVector ETV
0	1	0.114274565438	0
0	24	1.707119181827	1
0	47	3.275163745582	2
0	70	4.954043279244	3
0	93	6.571678780094	4
0	116	7.929830950294	5
0	139	9.396141723106	6
0	162	11.368086722056	7
0	185	12.782349710428	8
0	208	14.429523849004	9
0	231	15.678276988753	10
0	254	17.35371606595	11
0	277	18.655290882179	12
0	300	19.976288125926	13
0	323	21.125736430596	14
0	346	22.545811798267	15
0	369	23.564333592385	16
0	392	24.831596126391	17
0	415	26.05901075558	18
0	438	27.736092331896	19
0	461	29.567140789546	20
0	484	30.880833186984	21
0	507	32.398212298129	22
0	530	33.490808456747	23
0	553	35.275961367024	24
0	576	36.99152251946	25
0	578	38.488913887024	26
0	601	40.12838640351	27
0	624	41.539758818766	28
0	647	42.619280905539	29
0	670	44.107215476997	30
0	693	45.884623034933	31
0	716	47.76733232204	32
0	739	49.160008003313	33
0	762	50.633228672512	34
0	764	52.090452126537	35
0	787	54.042326601299	36
0	789	55.784564578983	37
0	812	57.091550631526	38
0	814	58.418251518237	39
0	837	59.650995650406	40
0	860	61.632635330626	41
0	883	62.874053948869	42
0	906	64.237215200982	43
0	929	65.343121359435	44
0	952	67.138656106389	45
0	975	68.838231167833	46
0	998	69.910665614142	47
0	1021	71.416531998509	48
0	1044	72.928983658863	49
0	1067	73.95921891889	50
0	1090	75.928083020574	51
0	1113	76.94495469619	52
0	1136	78.771778913992	53
0	1159	80.601676284181	54
0	1182	82.182563558765	55
0	1205	84.080625919704	56
0	1207	85.280990242338	57
0	1230	87.206692390921	58
0	1253	88.550084116714	59
0	1276	89.66357003393	60
0	1299	91.253264750199	61
0	1322	92.343497732266	62
0	1324	94.200622650406	63
0	1347	95.317938217039	64
0	1370	96.943296415576	65
0	1372	98.54960454915	66
0	1395	100.252822042287	67
0	1418	102.101162194119	68
0	1441	103.957438377275	69
0	1464	105.345757979511	70
0	1487	106.71066981422	71
0	1510	108.289681018407	72
0	1512	110.167079813622	73
0	1535	111.538998564782	74
0	1558	113.434343678721	75
0	1581	115.278578640505	76
0	1604	116.710572426983	77
0	1627	118.118875335048	78
0	1650	119.352049090744	79
0	1652	121.284443032772	80
0	1675	122.499841238915	81
0	1698	124.016978515855	82
0	1721	125.532616863803	83
0	1744	126.77195386736	84
0	1767	128.304622450921	85
0	1790	129.546722155608	86
0	1813	131.044901720326	87
0	1836	132.981829600021	88
0	1859	134.739193740612	89
0	1882	135.977205014866	90
0	1905	137.20456746601	91
0	1928	139.096147953611	92
0	1951	140.418481493214	93
0	1974	141.88560089663	94
0	1994	143.719582544019	95
0	2017	145.657994568659	96
0	2040	146.782283462429	97
0	2063	148.01811768588	98
0	2086	149.090871764192	99
0	2109	150.818415378298	100
0	2132	152.270814342502	101
0	2155	153.321889821518	102
0	2178	154.884837263807	103
0	2201	156.409414331506	104
0	2224	157.675698316501	105
0	2247	159.033456202674	106
0	2270	160.23455221982	107
0	2293	161.515411712539	108
0	2316	162.755902109977	109
0	2318	163.859892953729	110
0	2320	165.493874613272	111
0	2343	167.24490690821	112
0	2366	168.397190013511	113
0	2389	169.820244451828	114
0	2412	171.46745431035	115
0	2435	173.016303574277	116
0	2458	174.914414538613	117
0	2460	176.480726148311	118
0	2483	177.666542892886	119
0	2506	179.312872074155	120
0	2529	181.268338006066	121
0	2552	182.926942075912	122
0	2575	184.720509445371	123
0	2577	186.093615335489	124
0	2600	187.444002355526	125
0	2623	189.311116892456	126
0	2646	190.954315668049	127
0	2666	192.296419542127	128
0	2689	193.696868074436	129
0	2709	195.213989452303	130
0	2711	196.814923139133	131
0	2713	198.284092988663	132
0	2736	200.009409220733	133
0	2759	201.802690890461	134
0	2782	202.972625877086	135
0	2805	204.528759056313	136
0	2828	205.551090620069	137
0	2851	206.810690852424	138
0	2874	208.57096996003	139
0	2897	210.50613047423	140
0	2920	211.581051914796	141
0	2943	213.564485895058	142
0	2966	215.149125689484	143
0	2989	217.105669791654	144
0	2991	218.492208248547	145
0	3014	220.251698348981	146
0	3037	221.802692313523	147
0	3060	223.6624168631	148
0	3062	224.767511559262	149
0	3085	226.750085444267	150
0	3108	228.069505114419	151
0	3131	229.1970040012	152
0	3133	230.632887016129	153
0	3156	231.941544812484	154
0	3179	233.569858640511	155
0	3202	234.995676185083	156
0	3225	236.407302643251	157
0	3248	237.861182866929	158
0	3271	239.593325084852	159
1	3	0.142870607559	0
1	3	0.142870607559	1
1	3	0.142870607559	2
1	3	0.142870607559	3
1	26	1.743101722685	4
1	26	1.743101722685	5
1	26	1.743101722685	6
1	26	1.743101722685	7
1	49	3.297916022604	8
1	49	3.297916022604	9
1	49	3.297916022604	10
1	49	3.297916022604	11
1	72	4.973513246016	12
1	72	4.973513246016	13
1	72	4.973513246016	14
1	72	4.973513246016	15
1	95	6.595569206992	16
1	95	6.595569206992	17
1	95	6.595569206992	18
1	95	6.595569206992	19
1	118	7.942633720379	20
1	118	7.942633720379	21
1	118	7.942633720379	22
1	118	7.942633720379	23
1	141	9.427194936114	24
1	141	9.427194936114	25
1	141	9.427194936114	26
1	141	9.427194936114	27
1	164	11.378749696071	28
1	164	11.378749696071	29
1	164	11.378749696071	30
1	164	11.378749696071	31
1	187	12.810762535143	32
1	187	12.810762535143	33
1	187	12.810762535143	34
1	187	12.810762535143	35
1	210	14.448107778682	36
1	210	14.448107778682	37
1	210	14.448107778682	38
1	210	14.448107778682	39
1	233	15.691151093514	40
1	233	15.691151093514	41
1	233	15.691151093514	42
1	233	15.691151093514	43
1	256	17.374509267937	44
1	256	17.374509267937	45
1	256	17.374509267937	46
1	256	17.374509267937	47
1	279	18.667791697129	48
1	279	18.667791697129	49
1	279	18.667791697129	50
1	279	18.667791697129	51
1	302	20.006547214097	52
1	302	20.006547214097	53
1	302	20.006547214097	54
1	302	20.006547214097	55
1	325	21.136255556118	56
1	325	21.136255556118	57
1	325	21.136255556118	58
1	325	21.136255556118	59
1	348	22.571595925488	60
1	348	22.571595925488	61
1	348	22.571595925488	62
1	348	22.571595925488	63
1	371	23.585699557338	64
1	371	23.585699557338	65
1	371	23.585699557338	66
1	371	23.585699557338	67
1	394	24.84453120291	68
1	394	24.84453120291	69
1	394	24.84453120291	70
1	394	24.84453120291	71
1	417	26.078351358906	72
1	417	26.078351358906	73
1	417	26.078351358906	74
1	417	26.078351358906	75
1	440	27.756007374825	76
1	440	27.756007374825	77
1	440	27.756007374825	78
1	440	27.756007374825	79
1	463	29.60871174496	80
1	463	29.60871174496	81
1	463	29.60871174496	82
1	463	29.60871174496	83
1	486	30.892249607332	84
1	486	30.892249607332	85
1	486	30.892249607332	86
1	486	30.892249607332	87
1	509	32.410664279055	88
1	509	32.410664279055	89
1	509	32.410664279055	90
1	509	32.410664279055	91
1	532	33.504117555559	92
1	532	33.504117555559	93
1	532	33.504117555559	94
1	532	33.504117555559	95
1	555	35.29261979189	96
1	555	35.29261979189	97
1	555	35.29261979189	98
1	555	35.29261979189	99
1	580	38.503511800202	100
1	580	38.503511800202	101
1	580	38.503511800202	102
1	580	38.503511800202	103
1	603	40.142837896904	104
1	603	40.142837896904	105
1	603	40.142837896904	106
1	603	40.142837896904	107
1	626	41.550697564239	108
1	626	41.550697564239	109
1	626	41.550697564239	110
1	626	41.550697564239	111
1	649	42.635415296435	112
1	649	42.635415296435	113
1	649	42.635415296435	114
1	649	42.635415296435	115
1	672	44.1202187278	116
1	672	44.1202187278	117
1	672	44.1202187278	118
1	672	44.1202187278	119
1	695	45.901325353699	120
1	695	45.901325353699	121
1	695	45.901325353699	122
1	695	45.901325353699	123
1	718	47.808660616935	124
1	718	47.808660616935	125
1	718	47.808660616935	126
1	718	47.808660616935	127
1	741	49.178687703133	128
1	741	49.178687703133	129
1	741	49.178687703133	130
1	741	49.178687703133	131
1	766	52.109026477563	132
1	766	52.109026477563	133
1	766	52.109026477563	134
1	766	52.109026477563	135
1	791	55.795840314721	136
1	791	55.795840314721	137
1	791	55.795840314721	138
1	791	55.795840314721	139
1	816	58.43778274362	140
1	816	58.43778274362	141
1	816	58.43778274362	142
1	816	58.43778274362	143
1	839	59.663801409668	144
1	839	59.663801409668	145
1	839	59.663801409668	146
1	839	59.663801409668	147
1	862	61.653497363738	148
1	862	61.653497363738	149
1	862	61.653497363738	150
1	862	61.653497363738	151
1	885	62.889121181008	152
1	885	62.889121181008	153
1	885	62.889121181008	154
1	885	62.889121181008	155
1	908	64.277364883704	156
1	908	64.277364883704	157
1	908	64.277364883704	158
1	908	64.277364883704	159
1	931	65.360131814528	160
1	931	65.360131814528	161
1	931	65.360131814528	162
1	931	65.360131814528	163
1	954	67.183065546865	164
1	954	67.183065546865	165
1	954	67.183065546865	166
1	954	67.183065546865	167
1	977	68.848426060763	168
1	977	68.848426060763	169
1	977	68.848426060763	170
1	977	68.848426060763	171
1	1000	69.92438177169	172
1	1000	69.92438177169	173
1	1000	69.92438177169	174
1	1000	69.92438177169	175
1	1023	71.433678340383	176
1	1023	71.433678340383	177
1	1023	71.433678340383	178
1	1023	71.433678340383	179
1	1046	72.951374023937	180
1	1046	72.951374023937	181
1	1046	72.951374023937	182
1	1046	72.951374023937	183
1	1069	73.980959620258	184
1	1069	73.980959620258	185
1	1069	73.980959620258	186
1	1069	73.980959620258	187
1	1092	75.950006178316	188
1	1092	75.950006178316	189
1	1092	75.950006178316	190
1	1092	75.950006178316	191
1	1115	76.962700833554	192
1	1115	76.962700833554	193
1	1115	76.962700833554	194
1	1115	76.962700833554	195
1	1138	78.816289015286	196
1	1138	78.816289015286	197
1	1138	78.816289015286	198
1	1138	78.816289015286	199
1	1161	80.613253004709	200
1	1161	80.613253004709	201
1	1161	80.613253004709	202
1	1161	80.613253004709	203
1	1184	82.203728744501	204
1	1184	82.203728744501	205
1	1184	82.203728744501	206
1	1184	82.203728744501	207
1	1209	85.294690034136	208
1	1209	85.294690034136	209
1	1209	85.294690034136	210
1	1209	85.294690034136	211
1	1232	87.225633449802	212
1	1232	87.225633449802	213
1	1232	87.225633449802	214
1	1232	87.225633449802	215
1	1255	88.563261810128	216
1	1255	88.563261810128	217
1	1255	88.563261810128	218
1	1255	88.563261810128	219
1	1278	89.687250574144	220
1	1278	89.687250574144	221
1	1278	89.687250574144	222
1	1278	89.687250574144	223
1	1301	91.272919108196	224
1	1301	91.272919108196	225
1	1301	91.272919108196	226
1	1301	91.272919108196	227
1	1326	94.213786924318	228
1	1326	94.213786924318	229
1	1326	94.213786924318	230
1	1326	94.213786924318	231
1	1349	95.352471275454	232
1	1349	95.352471275454	233
1	1349	95.352471275454	234
1	1349	95.352471275454	235
1	1374	98.569677276034	236
1	1374	98.569677276034	237
1	1374	98.569677276034	238
1	1374	98.569677276034	239
1	1397	100.277548170912	240
1	1397	100.277548170912	241
1	1397	100.277548170912	242
1	1397	100.277548170912	243
1	1420	102.11293100118	244
1	1420	102.11293100118	245
1	1420	102.11293100118	246
1	1420	102.11293100118	247
1	1443	103.969186597275	248
1	1443	103.969186597275	249
1	1443	103.969186597275	250
1	1443	103.969186597275	251
1	1466	105.358781260891	252
1	1466	105.358781260891	253
1	1466	105.358781260891	254
1	1466	105.358781260891	255
1	1489	106.722534310562	256
1	1489	106.722534310562	257
1	1489	106.722534310562	258
1	1489	106.722534310562	259
1	1514	110.177093656748	260
1	1514	110.177093656748	261
1	1514	110.177093656748	262
1	1514	110.177093656748	263
1	1537	111.549671534454	264
1	1537	111.549671534454	265
1	1537	111.549671534454	266
1	1537	111.549671534454	267
1	1560	113.445841130804	268
1	1560	113.445841130804	269
1	1560	113.445841130804	270
1	1560	113.445841130804	271
1	1583	115.291920594655	272
1	1583	115.291920594655	273
1	1583	115.291920594655	274
1	1583	115.291920594655	275
1	1606	116.725311042773	276
1	1606	116.725311042773	277
1	1606	116.725311042773	278
1	1606	116.725311042773	279
1	1629	118.129724072286	280
1	1629	118.129724072286	281
1	1629	118.129724072286	282
1	1629	118.129724072286	283
1	1654	121.313986120489	284
1	1654	121.313986120489	285
1	1654	121.313986120489	286
1	1654	121.313986120489	287
1	1677	122.523910544368	288
1	1677	122.523910544368	289
1	1677	122.523910544368	290
1	1677	122.523910544368	291
1	1700	124.048966168752	292
1	1700	124.048966168752	293
1	1700	124.048966168752	294
1	1700	124.048966168752	295
1	1723	125.552582956595	296
1	1723	125.552582956595	297
1	1723	125.552582956595	298
1	1723	125.552582956595	299
1	1746	126.785903120281	300
1	1746	126.785903120281	301
1	1746	126.785903120281	302
1	1746	126.785903120281	303
1	1769	128.326160088555	304
1	1769	128.326160088555	305
1	1769	128.326160088555	306
1	1769	128.326160088555	307
1	1792	129.576880330251	308
1	1792	129.576880330251	309
1	1792	129.576880330251	310
1	1792	129.576880330251	311
1	1815	131.065668306815	312
1	1815	131.065668306815	313
1	1815	131.065668306815	314
1	1815	131.065668306815	315
1	1838	132.995606737076	316
1	1838	132.995606737076	317
1	1838	132.995606737076	318
1	1838	132.995606737076	319
1	1861	134.759533798839	320
1	1861	134.759533798839	321
1	1861	134.759533798839	322
1	1861	134.759533798839	323
1	1884	135.98791838493	324
1	1884	135.98791838493	325
1	1884	135.98791838493	326
1	1884	135.98791838493	327
1	1907	137.226638177619	328
1	1907	137.226638177619	329
1	1907	137.226638177619	330
1	1907	137.226638177619	331
1	1930	139.109953250712	332
1	1930	139.109953250712	333
1	1930	139.109953250712	334
1	1930	139.109953250712	335
1	1953	140.429267235484	336
1	1953	140.429267235484	337
1	1953	140.429267235484	338
1	1953	140.429267235484	339
1	1976	141.898006786908	340
1	1976	141.898006786908	341
1	1976	141.898006786908	342
1	1976	141.898006786908	343
1	1996	143.732178629816	344
1	1996	143.732178629816	345
1	1996	143.732178629816	346
1	1996	143.732178629816	347
1	2019	145.670521472428	348
1	2019	145.670521472428	349
1	2019	145.670521472428	350
1	2019	145.670521472428	351
1	2042	146.801972466458	352
1	2042	146.801972466458	353
1	2042	146.801972466458	354
1	2042	146.801972466458	355
1	2065	148.038459398268	356
1	2065	148.038459398268	357
1	2065	148.038459398268	358
1	2065	148.038459398268	359
1	2088	149.10111748565	360
1	2088	149.10111748565	361
1	2088	149.10111748565	362
1	2088	149.10111748565	363
1	2111	150.830654787902	364
1	2111	150.830654787902	365
1	2111	150.830654787902	366
1	2111	150.830654787902	367
1	2134	152.314487125624	368
1	2134	152.314487125624	369
1	2134	152.314487125624	370
1	2134	152.314487125624	371
1	2157	153.345000876155	372
1	2157	153.345000876155	373
1	2157	153.345000876155	374
1	2157	153.345000876155	375
1	2180	154.899210302367	376
1	2180	154.899210302367	377
1	2180	154.899210302367	378
1	2180	154.899210302367	379
1	2203	156.435886691536	380
1	2203	156.435886691536	381
1	2203	156.435886691536	382
1	2203	156.435886691536	383
1	2226	157.687485807035	384
1	2226	157.687485807035	385
1	2226	157.687485807035	386
1	2226	157.687485807035	387
1	2249	159.04423468473	388
1	2249	159.04423468473	389
1	2249	159.04423468473	390
1	2249	159.04423468473	391
1	2272	160.274083141269	392
1	2272	160.274083141269	393
1	2272	160.274083141269	394
1	2272	160.274083141269	395
1	2295	161.527903101491	396
1	2295	161.527903101491	397
1	2295	161.527903101491	398
1	2295	161.527903101491	399
1	2322	165.505570379673	400
1	2322	165.505570379673	401
1	2322	165.505570379673	402
1	2322	165.505570379673	403
1	2345	167.264502557995	404
1	2345	167.264502557995	405
1	2345	167.264502557995	406
1	2345	167.264502557995	407
1	2368	168.409408843692	408
1	2368	168.409408843692	409
1	2368	168.409408843692	410
1	2368	168.409408843692	411
1	2391	169.841419013845	412
1	2391	169.841419013845	413
1	2391	169.841419013845	414
1	2391	169.841419013845	415
1	2414	171.494340476584	416
1	2414	171.494340476584	417
1	2414	171.494340476584	418
1	2414	171.494340476584	419
1	2437	173.026879668785	420
1	2437	173.026879668785	421
1	2437	173.026879668785	422
1	2437	173.026879668785	423
1	2462	176.491832515871	424
1	2462	176.491832515871	425
1	2462	176.491832515871	426
1	2462	176.491832515871	427
1	2485	177.685947106264	428
1	2485	177.685947106264	429
1	2485	177.685947106264	430
1	2485	177.685947106264	431
1	2508	179.331992969187	432
1	2508	179.331992969187	433
1	2508	179.331992969187	434
1	2508	179.331992969187	435
1	2531	181.30499199209	436
1	2531	181.30499199209	437
1	2531	181.30499199209	438
1	2531	181.30499199209	439
1	2554	182.940518131997	440
1	2554	182.940518131997	441
1	2554	182.940518131997	442
1	2554	182.940518131997	443
1	2579	186.109963999356	444
1	2579	186.109963999356	445
1	2579	186.109963999356	446
1	2579	186.109963999356	447
1	2602	187.457487526641	448
1	2602	187.457487526641	449
1	2602	187.457487526641	450
1	2602	187.457487526641	451
1	2625	189.329566444885	452
1	2625	189.329566444885	453
1	2625	189.329566444885	454
1	2625	189.329566444885	455
1	2648	190.981658409903	456
1	2648	190.981658409903	457
1	2648	190.981658409903	458
1	2648	190.981658409903	459
1	2668	192.31738183535	460
1	2668	192.31738183535	461
1	2668	192.31738183535	462
1	2668	192.31738183535	463
1	2691	193.717266526252	464
1	2691	193.717266526252	465
1	2691	193.717266526252	466
1	2691	193.717266526252	467
1	2715	198.295120623698	468
1	2715	198.295120623698	469
1	2715	198.295120623698	470
1	2715	198.295120623698	471
1	2738	200.03019645119	472
1	2738	200.03019645119	473
1	2738	200.03019645119	474
1	2738	200.03019645119	475
1	2761	201.813091012683	476
1	2761	201.813091012683	477
1	2761	201.813091012683	478
1	2761	201.813091012683	479
1	2784	202.986453553183	480
1	2784	202.986453553183	481
1	2784	202.986453553183	482
1	2784	202.986453553183	483
1	2807	204.554572696777	484
1	2807	204.554572696777	485
1	2807	204.554572696777	486
1	2807	204.554572696777	487
1	2830	205.561710203509	488
1	2830	205.561710203509	489
1	2830	205.561710203509	490
1	2830	205.561710203509	491
1	2853	206.825873086902	492
1	2853	206.825873086902	493
1	2853	206.825873086902	494
1	2853	206.825873086902	495
1	2876	208.602577762134	496
1	2876	208.602577762134	497
1	2876	208.602577762134	498
1	2876	208.602577762134	499
1	2899	210.524189495972	500
1	2899	210.524189495972	501
1	2899	210.524189495972	502
1	2899	210.524189495972	503
1	2922	211.614293191648	504
1	2922	211.614293191648	505
1	2922	211.614293191648	506
1	2922	211.614293191648	507
1	2945	213.576197117088	508
1	2945	213.576197117088	509
1	2945	213.576197117088	510
1	2945	213.576197117088	511
1	2968	215.170126888421	512
1	2968	215.170126888421	513
1	2968	215.170126888421	514
1	2968	215.170126888421	515
1	2993	218.503551649124	516
1	2993	218.503551649124	517
1	2993	218.503551649124	518
1	2993	218.503551649124	519
1	3016	220.301054573139	520
1	3016	220.301054573139	521
1	3016	220.301054573139	522
1	3016	220.301054573139	523
1	3039	221.8252668301	524
1	3039	221.8252668301	525
1	3039	221.8252668301	526
1	3039	221.8252668301	527
1	3064	224.79834214568	528
1	3064	224.79834214568	529
1	3064	224.79834214568	530
1	3064	224.79834214568	531
1	3087	226.761214962882	532
1	3087	226.761214962882	533
1	3087	226.761214962882	534
1	3087	226.761214962882	535
1	3110	228.097871066197	536
1	3110	228.097871066197	537
1	3110	228.097871066197	538
1	3110	228.097871066197	539
1	3135	230.674338994057	540
1	3135	230.674338994057	541
1	3135	230.674338994057	542
1	3135	230.674338994057	543
1	3158	231.966232403278	544
1	3158	231.966232403278	545
1	3158	231.966232403278	546
1	3158	231.966232403278	547
1	3181	233.590737190135	548
1	3181	233.590737190135	549
1	3181	233.590737190135	550
1	3181	233.590737190135	551
1	3204	235.009318462054	552
1	3204	235.009318462054	553
1	3204	235.009318462054	554
1	3204	235.009318462054	555
1	3227	236.422363672066	556
1	3227	236.422363672066	557
1	3227	236.422363672066	558
1	3227	236.422363672066	559
1	3250	237.893265760949	560
1	3250	237.893265760949	561
1	3250	237.893265760949	562
1	3250	237.893265760949	563
1	3273	239.608542155525	564
1	3273	239.608542155525	565
1	3273	239.608542155525	566
1	3273	239.608542155525	567
2	8	0.158381092426	0
2	8	0.158381092426	1
2	8	0.158381092426	2
2	32	1.754013332946	3
2	32	1.754013332946	4
2	32	1.754013332946	5
2	66	3.336860227384	6
2	66	3.336860227384	7
2	66	3.336860227384	8
2	85	5.006802379758	9
2	85	5.006802379758	10
2	85	5.006802379758	11
2	101	6.614013484927	12
2	101	6.614013484927	13
2	101	6.614013484927	14
2	125	7.963865403394	15
2	125	7.963865403394	16
2	125	7.963865403394	17
2	154	9.489268403578	18
2	154	9.489268403578	19
2	154	9.489268403578	20
2	178	11.408782101296	21
2	178	11.408782101296	22
2	178	11.408782101296	23
2	194	12.829593825563	24
2	194	12.829593825563	25
2	194	12.829593825563	26
2	215	14.468294365982	27
2	215	14.468294365982	28
2	215	14.468294365982	29
2	238	15.71294492285	30
2	238	15.71294492285	31
2	238	15.71294492285	32
2	262	17.398339060002	33
2	262	17.398339060002	34
2	262	17.398339060002	35
2	289	18.698314160952	36
2	289	18.698314160952	37
2	289	18.698314160952	38
2	307	20.018372600116	39
2	307	20.018372600116	40
2	307	20.018372600116	41
2	338	21.197501287464	42
2	338	21.197501287464	43
2	338	21.197501287464	44
2	357	22.610441368372	45
2	357	22.610441368372	46
2	357	22.610441368372	47
2	378	23.608797411052	48
2	378	23.608797411052	49
2	378	23.608797411052	50
2	407	24.893390804717	51
2	407	24.893390804717	52
2	407	24.893390804717	53
2	422	26.090796269126	54
2	422	26.090796269126	55
2	422	26.090796269126	56
2	446	27.771549083115	57
2	446	27.771549083115	58
2	446	27.771549083115	59
2	469	29.621036995144	60
2	469	29.621036995144	61
2	469	29.621036995144	62
2	491	30.908469976523	63
2	491	30.908469976523	64
2	491	30.908469976523	65
2	515	32.429446429842	66
2	515	32.429446429842	67
2	515	32.429446429842	68
2	543	33.530249276177	69
2	543	33.530249276177	70
2	543	33.530249276177	71
2	560	35.306087324928	72
2	560	35.306087324928	73
2	560	35.306087324928	74
2	585	38.517047765955	75
2	585	38.517047765955	76
2	585	38.517047765955	77
2	610	40.158067573441	78
2	610	40.158067573441	79
2	610	40.158067573441	80
2	631	41.566356509655	81
2	631	41.566356509655	82
2	631	41.566356509655	83
2	656	42.657310258948	84
2	656	42.657310258948	85
2	656	42.657310258948	86
2	677	44.130316081893	87
2	677	44.130316081893	88
2	677	44.130316081893	89
2	703	45.92169780464	90
2	703	45.92169780464	91
2	703	45.92169780464	92
2	725	47.827309998029	93
2	725	47.827309998029	94
2	725	47.827309998029	95
2	754	49.215476467442	96
2	754	49.215476467442	97
2	754	49.215476467442	98
2	780	52.167861467466	99
2	780	52.167861467466	100
2	780	52.167861467466	101
2	796	55.806004947561	102
2	796	55.806004947561	103
2	796	55.806004947561	104
2	821	58.447940034858	105
2	821	58.447940034858	106
2	821	58.447940034858	107
2	852	59.734794488902	108
2	852	59.734794488902	109
2	852	59.734794488902	110
2	874	61.689653773062	111
2	874	61.689653773062	112
2	874	61.689653773062	113
2	891	62.90340625705	114
2	891	62.90340625705	115
2	891	62.90340625705	116
2	914	64.292230075102	117
2	914	64.292230075102	118
2	914	64.292230075102	119
2	944	65.388407077206	120
2	944	65.388407077206	121
2	944	65.388407077206	122
2	960	67.205412345626	123
2	960	67.205412345626	124
2	960	67.205412345626	125
2	983	68.867396590904	126
2	983	68.867396590904	127
2	983	68.867396590904	128
2	1005	69.934650577885	129
2	1005	69.934650577885	130
2	1005	69.934650577885	131
2	1028	71.453417126298	132
2	1028	71.453417126298	133
2	1028	71.453417126298	134
2	1051	72.966036994201	135
2	1051	72.966036994201	136
2	1051	72.966036994201	137
2	1074	73.994381367174	138
2	1074	73.994381367174	139
2	1074	73.994381367174	140
2	1100	75.970464431244	141
2	1100	75.970464431244	142
2	1100	75.970464431244	143
2	1121	76.982345831172	144
2	1121	76.982345831172	145
2	1121	76.982345831172	146
2	1151	78.841090272528	147
2	1151	78.841090272528	148
2	1151	78.841090272528	149
2	1166	80.62404870626	150
2	1166	80.62404870626	151
2	1166	80.62404870626	152
2	1190	82.217593686321	153
2	1190	82.217593686321	154
2	1190	82.217593686321	155
2	1214	85.3074135464	156
2	1214	85.3074135464	157
2	1214	85.3074135464	158
2	1237	87.23601633778	159
2	1237	87.23601633778	160
2	1237	87.23601633778	161
2	1260	88.587755028823	162
2	1260	88.587755028823	163
2	1260	88.587755028823	164
2	1284	89.706319205217	165
2	1284	89.706319205217	166
2	1284	89.706319205217	167
2	1311	91.302044489748	168
2	1311	91.302044489748	169
2	1311	91.302044489748	170
2	1331	94.22439366732	171
2	1331	94.22439366732	172
2	1331	94.22439366732	173
2	1355	95.370169894812	174
2	1355	95.370169894812	175
2	1355	95.370169894812	176
2	1379	98.591138056385	177
2	1379	98.591138056385	178
2	1379	98.591138056385	179
2	1403	100.290069567676	180
2	1403	100.290069567676	181
2	1403	100.290069567676	182
2	1425	102.144555050607	183
2	1425	102.144555050607	184
2	1425	102.144555050607	185
2	1456	104.020458012456	186
2	1456	104.020458012456	187
2	1456	104.020458012456	188
2	1473	105.375997848368	189
2	1473	105.375997848368	190
2	1473	105.375997848368	191
2	1494	106.745250410585	192
2	1494	106.745250410585	193
2	1494	106.745250410585	194
2	1519	110.195655318322	195
2	1519	110.195655318322	196
2	1519	110.195655318322	197
2	1543	111.562480446009	198
2	1543	111.562480446009	199
2	1543	111.562480446009	200
2	1565	113.456663756459	201
2	1565	113.456663756459	202
2	1565	113.456663756459	203
2	1600	115.339169338396	204
2	1600	115.339169338396	205
2	1600	115.339169338396	206
2	1612	116.743016415981	207
2	1612	116.743016415981	208
2	1612	116.743016415981	209
2	1635	118.144882889511	210
2	1635	118.144882889511	211
2	1635	118.144882889511	212
2	1660	121.328173714012	213
2	1660	121.328173714012	214
2	1660	121.328173714012	215
2	1682	122.540011252281	216
2	1682	122.540011252281	217
2	1682	122.540011252281	218
2	1714	124.096154231463	219
2	1714	124.096154231463	220
2	1714	124.096154231463	221
2	1729	125.571751186968	222
2	1729	125.571751186968	223
2	1729	125.571751186968	224
2	1759	126.811818941412	225
2	1759	126.811818941412	226
2	1759	126.811818941412	227
2	1777	128.349474132059	228
2	1777	128.349474132059	229
2	1777	128.349474132059	230
2	1797	129.590612527535	231
2	1797	129.590612527535	232
2	1797	129.590612527535	233
2	1828	131.098680840475	234
2	1828	131.098680840475	235
2	1828	131.098680840475	236
2	1845	133.013923166603	237
2	1845	133.013923166603	238
2	1845	133.013923166603	239
2	1866	134.770584437168	240
2	1866	134.770584437168	241
2	1866	134.770584437168	242
2	1897	136.035868708267	243
2	1897	136.035868708267	244
2	1897	136.035868708267	245
2	1913	137.243178613244	246
2	1913	137.243178613244	247
2	1913	137.243178613244	248
2	1935	139.120704262421	249
2	1935	139.120704262421	250
2	1935	139.120704262421	251
2	1959	140.448209235386	252
2	1959	140.448209235386	253
2	1959	140.448209235386	254
2	1986	141.935260459554	255
2	1986	141.935260459554	256
2	1986	141.935260459554	257
2	2002	143.767469944216	258
2	2002	143.767469944216	259
2	2002	143.767469944216	260
2	2025	145.683911850705	261
2	2025	145.683911850705	262
2	2025	145.683911850705	263
2	2047	146.813410580006	264
2	2047	146.813410580006	265
2	2047	146.813410580006	266
2	2071	148.052767117399	267
2	2071	148.052767117399	268
2	2071	148.052767117399	269
2	2095	149.117902681135	270
2	2095	149.117902681135	271
2	2095	149.117902681135	272
2	2117	150.85321247652	273
2	2117	150.85321247652	274
2	2117	150.85321247652	275
2	2139	152.324793864381	276
2	2139	152.324793864381	277
2	2139	152.324793864381	278
2	2166	153.369895269856	279
2	2166	153.369895269856	280
2	2166	153.369895269856	281
2	2185	154.909850737548	282
2	2185	154.909850737548	283
2	2185	154.909850737548	284
2	2217	156.487956457739	285
2	2217	156.487956457739	286
2	2217	156.487956457739	287
2	2231	157.698066041347	288
2	2231	157.698066041347	289
2	2231	157.698066041347	290
2	2255	159.063481013928	291
2	2255	159.063481013928	292
2	2255	159.063481013928	293
2	2278	160.289243988526	294
2	2278	160.289243988526	295
2	2278	160.289243988526	296
2	2300	161.538151942307	297
2	2300	161.538151942307	298
2	2300	161.538151942307	299
2	2328	165.519952656576	300
2	2328	165.519952656576	301
2	2328	165.519952656576	302
2	2351	167.286453687943	303
2	2351	167.286453687943	304
2	2351	167.286453687943	305
2	2373	168.42225395201	306
2	2373	168.42225395201	307
2	2373	168.42225395201	308
2	2396	169.851615557417	309
2	2396	169.851615557417	310
2	2396	169.851615557417	311
2	2422	171.520488744529	312
2	2422	171.520488744529	313
2	2422	171.520488744529	314
2	2442	173.077192116358	315
2	2442	173.077192116358	316
2	2442	173.077192116358	317
2	2473	176.513920384758	318
2	2473	176.513920384758	319
2	2473	176.513920384758	320
2	2491	177.704768607008	321
2	2491	177.704768607008	322
2	2491	177.704768607008	323
2	2517	179.365932677203	324
2	2517	179.365932677203	325
2	2517	179.365932677203	326
2	2545	181.336857880701	327
2	2545	181.336857880701	328
2	2545	181.336857880701	329
2	2560	182.953104164694	330
2	2560	182.953104164694	331
2	2560	182.953104164694	332
2	2587	186.138617246901	333
2	2587	186.138617246901	334
2	2587	186.138617246901	335
2	2615	187.481218864737	336
2	2615	187.481218864737	337
2	2615	187.481218864737	338
2	2630	189.351623809434	339
2	2630	189.351623809434	340
2	2630	189.351623809434	341
2	2654	191.002228728945	342
2	2654	191.002228728945	343
2	2654	191.002228728945	344
2	2675	192.334845556471	345
2	2675	192.334845556471	346
2	2675	192.334845556471	347
2	2697	193.732607131378	348
2	2697	193.732607131378	349
2	2697	193.732607131378	350
2	2721	198.317430034172	351
2	2721	198.317430034172	352
2	2721	198.317430034172	353
2	2743	200.046305666587	354
2	2743	200.046305666587	355
2	2743	200.046305666587	356
2	2766	201.828969500481	357
2	2766	201.828969500481	358
2	2766	201.828969500481	359
2	2789	203.006732306181	360
2	2789	203.006732306181	361
2	2789	203.006732306181	362
2	2813	204.56583229163	363
2	2813	204.56583229163	364
2	2813	204.56583229163	365
2	2835	205.572547116098	366
2	2835	205.572547116098	367
2	2835	205.572547116098	368
2	2859	206.848307658199	369
2	2859	206.848307658199	370
2	2859	206.848307658199	371
2	2881	208.617253011496	372
2	2881	208.617253011496	373
2	2881	208.617253011496	374
2	2910	210.555491646128	375
2	2910	210.555491646128	376
2	2910	210.555491646128	377
2	2930	211.63985288939	378
2	2930	211.63985288939	379
2	2930	211.63985288939	380
2	2951	213.591185305978	381
2	2951	213.591185305978	382
2	2951	213.591185305978	383
2	2973	215.186716815352	384
2	2973	215.186716815352	385
2	2973	215.186716815352	386
2	2999	218.516136001924	387
2	2999	218.516136001924	388
2	2999	218.516136001924	389
2	3029	220.355669367348	390
2	3029	220.355669367348	391
2	3029	220.355669367348	392
2	3052	221.881364650911	393
2	3052	221.881364650911	394
2	3052	221.881364650911	395
2	3069	224.815094557831	396
2	3069	224.815094557831	397
2	3069	224.815094557831	398
2	3100	226.791060586595	399
2	3100	226.791060586595	400
2	3100	226.791060586595	401
2	3115	228.112183068681	402
2	3115	228.112183068681	403
2	3115	228.112183068681	404
2	3141	230.693277603943	405
2	3141	230.693277603943	406
2	3141	230.693277603943	407
2	3164	231.981163685976	408
2	3164	231.981163685976	409
2	3164	231.981163685976	410
2	3187	233.602929353577	411
2	3187	233.602929353577	412
2	3187	233.602929353577	413
2	3209	235.024782736891	414
2	3209	235.024782736891	415
2	3209	235.024782736891	416
2	3240	236.466278118316	417
2	3240	236.466278118316	418
2	3240	236.466278118316	419
2	3256	237.911075000766	420
2	3256	237.911075000766	421
2	3256	237.911075000766	422
2	3290	239.668840959572	423
2	3290	239.668840959572	424
2	3290	239.668840959572	425
3	9	0.160742618959	0
3	9	0.160742618959	1
3	9	0.160742618959	2
3	9	0.160742618959	3
3	42	1.794807677856	4
3	42	1.794807677856	5
3	42	1.794807677856	6
3	42	1.794807677856	7
3	54	3.309463319409	8
3	54	3.309463319409	9
3	54	3.309463319409	10
3	54	3.309463319409	11
3	77	4.988398816509	12
3	77	4.988398816509	13
3	77	4.988398816509	14
3	77	4.988398816509	15
3	100	6.610090227594	16
3	100	6.610090227594	17
3	100	6.610090227594	18
3	100	6.610090227594	19
3	124	7.956758732678	20
3	124	7.956758732678	21
3	124	7.956758732678	22
3	124	7.956758732678	23
3	149	9.474814208959	24
3	149	9.474814208959	25
3	149	9.474814208959	26
3	149	9.474814208959	27
3	170	11.397078131232	28
3	170	11.397078131232	29
3	170	11.397078131232	30
3	170	11.397078131232	31
3	193	12.822786039529	32
3	193	12.822786039529	33
3	193	12.822786039529	34
3	193	12.822786039529	35
3	220	14.480745114441	36
3	220	14.480745114441	37
3	220	14.480745114441	38
3	220	14.480745114441	39
3	240	15.722499398014	40
3	240	15.722499398014	41
3	240	15.722499398014	42
3	240	15.722499398014	43
3	261	17.389345624803	44
3	261	17.389345624803	45
3	261	17.389345624803	46
3	261	17.389345624803	47
3	284	18.682373425969	48
3	284	18.682373425969	49
3	284	18.682373425969	50
3	284	18.682373425969	51
3	308	20.023646393369	52
3	308	20.023646393369	53
3	308	20.023646393369	54
3	308	20.023646393369	55
3	333	21.183355162037	56
3	333	21.183355162037	57
3	333	21.183355162037	58
3	333	21.183355162037	59
3	356	22.602356236092	60
3	356	22.602356236092	61
3	356	22.602356236092	62
3	356	22.602356236092	63
3	377	23.604613343107	64
3	377	23.604613343107	65
3	377	23.604613343107	66
3	377	23.604613343107	67
3	402	24.883140921184	68
3	402	24.883140921184	69
3	402	24.883140921184	70
3	402	24.883140921184	71
3	433	26.13474788417	72
3	433	26.13474788417	73
3	433	26.13474788417	74
3	433	26.13474788417	75
3	445	27.769745007763	76
3	445	27.769745007763	77
3	445	27.769745007763	78
3	445	27.769745007763	79
3	468	29.618971722412	80
3	468	29.618971722412	81
3	468	29.618971722412	82
3	468	29.618971722412	83
3	492	30.914439600784	84
3	492	30.914439600784	85
3	492	30.914439600784	86
3	492	30.914439600784	87
3	514	32.428698196682	88
3	514	32.428698196682	89
3	514	32.428698196682	90
3	514	32.428698196682	91
3	537	33.51612197751	92
3	537	33.51612197751	93
3	537	33.51612197751	94
3	537	33.51612197751	95
3	566	35.323357406521	96
3	566	35.323357406521	97
3	566	35.323357406521	98
3	566	35.323357406521	99
3	587	38.519101876902	100
3	587	38.519101876902	101
3	587	38.519101876902	102
3	587	38.519101876902	103
3	608	40.153683691822	104
3	608	40.153683691822	105
3	608	40.153683691822	106
3	608	40.153683691822	107
3	636	41.577327222046	108
3	636	41.577327222046	109
3	636	41.577327222046	110
3	636	41.577327222046	111
3	655	42.656912710312	112
3	655	42.656912710312	113
3	655	42.656912710312	114
3	655	42.656912710312	115
3	678	44.130942918901	116
3	678	44.130942918901	117
3	678	44.130942918901	118
3	678	44.130942918901	119
3	708	45.943373441995	120
3	708	45.943373441995	121
3	708	45.943373441995	122
3	708	45.943373441995	123
3	724	47.820046485149	124
3	724	47.820046485149	125
3	724	47.820046485149	126
3	724	47.820046485149	127
3	747	49.202825536428	128
3	747	49.202825536428	129
3	747	49.202825536428	130
3	747	49.202825536428	131
3	772	52.120741863837	132
3	772	52.120741863837	133
3	772	52.120741863837	134
3	772	52.120741863837	135
3	798	55.810251862828	136
3	798	55.810251862828	137
3	798	55.810251862828	138
3	798	55.810251862828	139
3	832	58.472061446052	140
3	832	58.472061446052	141
3	832	58.472061446052	142
3	832	58.472061446052	143
3	847	59.720204209627	144
3	847	59.720204209627	145
3	847	59.720204209627	146
3	847	59.720204209627	147
3	867	61.673546696829	148
3	867	61.673546696829	149
3	867	61.673546696829	150
3	867	61.673546696829	151
3	890	62.901769003741	152
3	890	62.901769003741	153
3	890	62.901769003741	154
3	890	62.901769003741	155
3	913	64.291798227664	156
3	913	64.291798227664	157
3	913	64.291798227664	158
3	913	64.291798227664	159
3	937	65.37376260293	160
3	937	65.37376260293	161
3	937	65.37376260293	162
3	937	65.37376260293	163
3	959	67.205372735375	164
3	959	67.205372735375	165
3	959	67.205372735375	166
3	959	67.205372735375	167
3	982	68.861639463792	168
3	982	68.861639463792	169
3	982	68.861639463792	170
3	982	68.861639463792	171
3	1012	69.956906700391	172
3	1012	69.956906700391	173
3	1012	69.956906700391	174
3	1012	69.956906700391	175
3	1029	71.455088773726	176
3	1029	71.455088773726	177
3	1029	71.455088773726	178
3	1029	71.455088773726	179
3	1059	73.001561759136	180
3	1059	73.001561759136	181
3	1059	73.001561759136	182
3	1059	73.001561759136	183
3	1085	74.034113450569	184
3	1085	74.034113450569	185
3	1085	74.034113450569	186
3	1085	74.034113450569	187
3	1101	75.971560925603	188
3	1101	75.971560925603	189
3	1101	75.971560925603	190
3	1101	75.971560925603	191
3	1127	76.994501038026	192
3	1127	76.994501038026	193
3	1127	76.994501038026	194
3	1127	76.994501038026	195
3	1143	78.827523110001	196
3	1143	78.827523110001	197
3	1143	78.827523110001	198
3	1143	78.827523110001	199
3	1167	80.629055900589	200
3	1167	80.629055900589	201
3	1167	80.629055900589	202
3	1167	80.629055900589	203
3	1191	82.221131266415	204
3	1191	82.221131266415	205
3	1191	82.221131266415	206
3	1191	82.221131266415	207
3	1215	85.308030784967	208
3	1215	85.308030784967	209
3	1215	85.308030784967	210
3	1215	85.308030784967	211
3	1238	87.240787925302	212
3	1238	87.240787925302	213
3	1238	87.240787925302	214
3	1238	87.240787925302	215
3	1264	88.599231347655	216
3	1264	88.599231347655	217
3	1264	88.599231347655	218
3	1264	88.599231347655	219
3	1283	89.697789943708	220
3	1283	89.697789943708	221
3	1283	89.697789943708	222
3	1283	89.697789943708	223
3	1306	91.285683985037	224
3	1306	91.285683985037	225
3	1306	91.285683985037	226
3	1306	91.285683985037	227
3	1333	94.226469155251	228
3	1333	94.226469155251	229
3	1333	94.226469155251	230
3	1333	94.226469155251	231
3	1358	95.375430053619	232
3	1358	95.375430053619	233
3	1358	95.375430053619	234
3	1358	95.375430053619	235
3	1383	98.601685444778	236
3	1383	98.601685444778	237
3	1383	98.601685444778	238
3	1383	98.601685444778	239
3	1404	100.292219703177	240
3	1404	100.292219703177	241
3	1404	100.292219703177	242
3	1404	100.292219703177	243
3	1427	102.147144367644	244
3	1427	102.147144367644	245
3	1427	102.147144367644	246
3	1427	102.147144367644	247
3	1449	104.001790601749	248
3	1449	104.001790601749	249
3	1449	104.001790601749	250
3	1449	104.001790601749	251
3	1472	105.371019148612	252
3	1472	105.371019148612	253
3	1472	105.371019148612	254
3	1472	105.371019148612	255
3	1495	106.753896249825	256
3	1495	106.753896249825	257
3	1495	106.753896249825	258
3	1495	106.753896249825	259
3	1527	110.225512819783	260
3	1527	110.225512819783	261
3	1527	110.225512819783	262
3	1527	110.225512819783	263
3	1544	111.570932062431	264
3	1544	111.570932062431	265
3	1544	111.570932062431	266
3	1544	111.570932062431	267
3	1566	113.459419657527	268
3	1566	113.459419657527	269
3	1566	113.459419657527	270
3	1566	113.459419657527	271
3	1588	115.303170850143	272
3	1588	115.303170850143	273
3	1588	115.303170850143	274
3	1588	115.303170850143	275
3	1613	116.744376055545	276
3	1613	116.744376055545	277
3	1613	116.744376055545	278
3	1613	116.744376055545	279
3	1634	118.141745641649	280
3	1634	118.141745641649	281
3	1634	118.141745641649	282
3	1634	118.141745641649	283
3	1659	121.325696638679	284
3	1659	121.325696638679	285
3	1659	121.325696638679	286
3	1659	121.325696638679	287
3	1693	122.567012491574	288
3	1693	122.567012491574	289
3	1693	122.567012491574	290
3	1693	122.567012491574	291
3	1706	124.079547080529	292
3	1706	124.079547080529	293
3	1706	124.079547080529	294
3	1706	124.079547080529	295
3	1728	125.566732522422	296
3	1728	125.566732522422	297
3	1728	125.566732522422	298
3	1728	125.566732522422	299
3	1751	126.798185586513	300
3	1751	126.798185586513	301
3	1751	126.798185586513	302
3	1751	126.798185586513	303
3	1778	128.350894866322	304
3	1778	128.350894866322	305
3	1778	128.350894866322	306
3	1778	128.350894866322	307
3	1801	129.601284246301	308
3	1801	129.601284246301	309
3	1801	129.601284246301	310
3	1801	129.601284246301	311
3	1821	131.076900140538	312
3	1821	131.076900140538	313
3	1821	131.076900140538	314
3	1821	131.076900140538	315
3	1844	133.013811412755	316
3	1844	133.013811412755	317
3	1844	133.013811412755	318
3	1844	133.013811412755	319
3	1867	134.773584531131	320
3	1867	134.773584531131	321
3	1867	134.773584531131	322
3	1867	134.773584531131	323
3	1890	136.011051248483	324
3	1890	136.011051248483	325
3	1890	136.011051248483	326
3	1890	136.011051248483	327
3	1912	137.240877101022	328
3	1912	137.240877101022	329
3	1912	137.240877101022	330
3	1912	137.240877101022	331
3	1936	139.12671027387	332
3	1936	139.12671027387	333
3	1936	139.12671027387	334
3	1936	139.12671027387	335
3	1958	140.442893785614	336
3	1958	140.442893785614	337
3	1958	140.442893785614	338
3	1958	140.442893785614	339
3	1981	141.913368778809	340
3	1981	141.913368778809	341
3	1981	141.913368778809	342
3	1981	141.913368778809	343
3	2001	143.765002135466	344
3	2001	143.765002135466	345
3	2001	143.765002135466	346
3	2001	143.765002135466	347
3	2024	145.681658452712	348
3	2024	145.681658452712	349
3	2024	145.681658452712	350
3	2024	145.681658452712	351
3	2048	146.814571285979	352
3	2048	146.814571285979	353
3	2048	146.814571285979	354
3	2048	146.814571285979	355
3	2072	148.061167259462	356
3	2072	148.061167259462	357
3	2072	148.061167259462	358
3	2072	148.061167259462	359
3	2093	149.11334304202	360
3	2093	149.11334304202	361
3	2093	149.11334304202	362
3	2093	149.11334304202	363
3	2118	150.856319885954	364
3	2118	150.856319885954	365
3	2118	150.856319885954	366
3	2118	150.856319885954	367
3	2140	152.334728873414	368
3	2140	152.334728873414	369
3	2140	152.334728873414	370
3	2140	152.334728873414	371
3	2163	153.360074502716	372
3	2163	153.360074502716	373
3	2163	153.360074502716	374
3	2163	153.360074502716	375
3	2196	154.945335647799	376
3	2196	154.945335647799	377
3	2196	154.945335647799	378
3	2196	154.945335647799	379
3	2209	156.463497826972	380
3	2209	156.463497826972	381
3	2209	156.463497826972	382
3	2209	156.463497826972	383
3	2235	157.710074767087	384
3	2235	157.710074767087	385
3	2235	157.710074767087	386
3	2235	157.710074767087	387
3	2265	159.098371235772	388
3	2265	159.098371235772	389
3	2265	159.098371235772	390
3	2265	159.098371235772	391
3	2279	160.290032202946	392
3	2279	160.290032202946	393
3	2279	160.290032202946	394
3	2279	160.290032202946	395
3	2305	161.55015883151	396
3	2305	161.55015883151	397
3	2305	161.55015883151	398
3	2305	161.55015883151	399
3	2329	165.524623483091	400
3	2329	165.524623483091	401
3	2329	165.524623483091	402
3	2329	165.524623483091	403
3	2361	167.315763280083	404
3	2361	167.315763280083	405
3	2361	167.315763280083	406
3	2361	167.315763280083	407
3	2379	168.438295173256	408
3	2379	168.438295173256	409
3	2379	168.438295173256	410
3	2379	168.438295173256	411
3	2397	169.854797779614	412
3	2397	169.854797779614	413
3	2397	169.854797779614	414
3	2397	169.854797779614	415
3	2426	171.537888147075	416
3	2426	171.537888147075	417
3	2426	171.537888147075	418
3	2426	171.537888147075	419
3	2443	173.077624581265	420
3	2443	173.077624581265	421
3	2443	173.077624581265	422
3	2443	173.077624581265	423
3	2467	176.503330671811	424
3	2467	176.503330671811	425
3	2467	176.503330671811	426
3	2467	176.503330671811	427
3	2492	177.712318406529	428
3	2492	177.712318406529	429
3	2492	177.712318406529	430
3	2492	177.712318406529	431
3	2514	179.357867061806	432
3	2514	179.357867061806	433
3	2514	179.357867061806	434
3	2514	179.357867061806	435
3	2536	181.319440765073	436
3	2536	181.319440765073	437
3	2536	181.319440765073	438
3	2536	181.319440765073	439
3	2561	182.958557586594	440
3	2561	182.958557586594	441
3	2561	182.958557586594	442
3	2561	182.958557586594	443
3	2591	186.149302316334	444
3	2591	186.149302316334	445
3	2591	186.149302316334	446
3	2591	186.149302316334	447
3	2607	187.468846721639	448
3	2607	187.468846721639	449
3	2607	187.468846721639	450
3	2607	187.468846721639	451
3	2631	189.356820765132	452
3	2631	189.356820765132	453
3	2631	189.356820765132	454
3	2631	189.356820765132	455
3	2653	190.997189699796	456
3	2653	190.997189699796	457
3	2653	190.997189699796	458
3	2653	190.997189699796	459
3	2673	192.330025612722	460
3	2673	192.330025612722	461
3	2673	192.330025612722	462
3	2673	192.330025612722	463
3	2696	193.73195157578	464
3	2696	193.73195157578	465
3	2696	193.73195157578	466
3	2696	193.73195157578	467
3	2720	198.316790073196	468
3	2720	198.316790073196	469
3	2720	198.316790073196	470
3	2720	198.316790073196	471
3	2744	200.053173830621	472
3	2744	200.053173830621	473
3	2744	200.053173830621	474
3	2744	200.053173830621	475
3	2773	201.84375187797	476
3	2773	201.84375187797	477
3	2773	201.84375187797	478
3	2773	201.84375187797	479
3	2795	203.019645824784	480
3	2795	203.019645824784	481
3	2795	203.019645824784	482
3	2795	203.019645824784	483
3	2823	204.588894049526	484
3	2823	204.588894049526	485
3	2823	204.588894049526	486
3	2823	204.588894049526	487
3	2842	205.660017866561	488
3	2842	205.660017866561	489
3	2842	205.660017866561	490
3	2842	205.660017866561	491
3	2862	206.855437064461	492
3	2862	206.855437064461	493
3	2862	206.855437064461	494
3	2862	206.855437064461	495
3	2889	208.639186199229	496
3	2889	208.639186199229	497
3	2889	208.639186199229	498
3	2889	208.639186199229	499
3	2904	210.540795502072	500
3	2904	210.540795502072	501
3	2904	210.540795502072	502
3	2904	210.540795502072	503
3	2931	211.646484954931	504
3	2931	211.646484954931	505
3	2931	211.646484954931	506
3	2931	211.646484954931	507
3	2954	213.599384352148	508
3	2954	213.599384352148	509
3	2954	213.599384352148	510
3	2954	213.599384352148	511
3	2974	215.190229271015	512
3	2974	215.190229271015	513
3	2974	215.190229271015	514
3	2974	215.190229271015	515
3	2998	218.513984524936	516
3	2998	218.513984524936	517
3	2998	218.513984524936	518
3	2998	218.513984524936	519
3	3024	220.343479098903	520
3	3024	220.343479098903	521
3	3024	220.343479098903	522
3	3024	220.343479098903	523
3	3047	221.856552985061	524
3	3047	221.856552985061	525
3	3047	221.856552985061	526
3	3047	221.856552985061	527
3	3074	224.829912758283	528
3	3074	224.829912758283	529
3	3074	224.829912758283	530
3	3074	224.829912758283	531
3	3092	226.774756683635	532
3	3092	226.774756683635	533
3	3092	226.774756683635	534
3	3092	226.774756683635	535
3	3119	228.124469326057	536
3	3119	228.124469326057	537
3	3119	228.124469326057	538
3	3119	228.124469326057	539
3	3140	230.690050802911	540
3	3140	230.690050802911	541
3	3140	230.690050802911	542
3	3140	230.690050802911	543
3	3165	231.989850149489	544
3	3165	231.989850149489	545
3	3165	231.989850149489	546
3	3165	231.989850149489	547
3	3188	233.60540614722	548
3	3188	233.60540614722	549
3	3188	233.60540614722	550
3	3188	233.60540614722	551
3	3220	235.058768539232	552
3	3220	235.058768539232	553
3	3220	235.058768539232	554
3	3220	235.058768539232	555
3	3233	236.453697773854	556
3	3233	236.453697773854	557
3	3233	236.453697773854	558
3	3233	236.453697773854	559
3	3262	237.921347890045	560
3	3262	237.921347890045	561
3	3262	237.921347890045	562
3	3262	237.921347890045	563
3	3278	239.629720416573	564
3	3278	239.629720416573	565
3	3278	239.629720416573	566
3	3278	239.629720416573	567
4	10	0.163252200566	0
4	10	0.163252200566	1
4	31	1.753305978569	2
4	31	1.753305978569	3
4	55	3.315294295522	4
4	55	3.315294295522	5
4	78	4.989490706784	6
4	78	4.989490706784	7
4	113	6.664635196056	8
4	113	6.664635196056	9
4	123	7.956449278813	10
4	123	7.956449278813	11
4	146	9.44319440498	12
4	146	9.44319440498	13
4	169	11.395862175443	14
4	169	11.395862175443	15
4	192	12.820965659731	16
4	192	12.820965659731	17
4	219	14.480322847667	18
4	219	14.480322847667	19
4	239	15.714070186202	20
4	239	15.714070186202	21
4	268	17.405583743987	22
4	268	17.405583743987	23
4	297	18.719169794734	24
4	297	18.719169794734	25
4	312	20.031645448653	26
4	312	20.031645448653	27
4	330	21.14887884921	28
4	330	21.14887884921	29
4	353	22.590967312665	30
4	353	22.590967312665	31
4	376	23.599438422297	32
4	376	23.599438422297	33
4	399	24.861222340147	34
4	399	24.861222340147	35
4	423	26.099230403242	36
4	423	26.099230403242	37
4	455	27.787665011634	38
4	455	27.787665011634	39
4	470	29.624240128667	40
4	470	29.624240128667	41
4	497	30.920602241361	42
4	497	30.920602241361	43
4	524	32.442153392519	44
4	524	32.442153392519	45
4	538	33.520765633055	46
4	538	33.520765633055	47
4	565	35.321520808871	48
4	565	35.321520808871	49
4	586	38.518638946628	50
4	586	38.518638946628	51
4	609	40.155480601545	52
4	609	40.155480601545	53
4	632	41.574646255152	54
4	632	41.574646255152	55
4	654	42.648749329819	56
4	654	42.648749329819	57
4	686	44.152479567694	58
4	686	44.152479567694	59
4	700	45.911685381996	60
4	700	45.911685381996	61
4	723	47.819628591658	62
4	723	47.819628591658	63
4	746	49.201832924114	64
4	746	49.201832924114	65
4	771	52.11991480139	66
4	771	52.11991480139	67
4	797	55.807888837392	68
4	797	55.807888837392	69
4	822	58.453382827353	70
4	822	58.453382827353	71
4	844	59.677513026876	72
4	844	59.677513026876	73
4	868	61.682734749445	74
4	868	61.682734749445	75
4	899	62.915993363896	76
4	899	62.915993363896	77
4	922	64.303006541627	78
4	922	64.303006541627	79
4	936	65.372846514192	80
4	936	65.372846514192	81
4	969	67.226517317692	82
4	969	67.226517317692	83
4	992	68.881133161837	84
4	992	68.881133161837	85
4	1006	69.944207055117	86
4	1006	69.944207055117	87
4	1030	71.456075321189	88
4	1030	71.456075321189	89
4	1064	73.015756552371	90
4	1064	73.015756552371	91
4	1075	73.998704788137	92
4	1075	73.998704788137	93
4	1097	75.960301496428	94
4	1097	75.960301496428	95
4	1120	76.974133320592	96
4	1120	76.974133320592	97
4	1144	78.828209971047	98
4	1144	78.828209971047	99
4	1172	80.63517552713	100
4	1172	80.63517552713	101
4	1189	82.213759788069	102
4	1189	82.213759788069	103
4	1216	85.311916056511	104
4	1216	85.311916056511	105
4	1247	87.277387885844	106
4	1247	87.277387885844	107
4	1273	88.624063081735	108
4	1273	88.624063081735	109
4	1293	89.719488402302	110
4	1293	89.719488402302	111
4	1316	91.324871794397	112
4	1316	91.324871794397	113
4	1332	94.225109040316	114
4	1332	94.225109040316	115
4	1354	95.363641975847	116
4	1354	95.363641975847	117
4	1384	98.601870231252	118
4	1384	98.601870231252	119
4	1402	100.288387771312	120
4	1402	100.288387771312	121
4	1426	102.145688201011	122
4	1426	102.145688201011	123
4	1448	103.999673977211	124
4	1448	103.999673977211	125
4	1471	105.36980705349	126
4	1471	105.36980705349	127
4	1504	106.766463617708	128
4	1504	106.766463617708	129
4	1520	110.197412863777	130
4	1520	110.197412863777	131
4	1542	111.562110831153	132
4	1542	111.562110831153	133
4	1570	113.468819496495	134
4	1570	113.468819496495	135
4	1597	115.328885943194	136
4	1597	115.328885943194	137
4	1611	116.741391359031	138
4	1611	116.741391359031	139
4	1640	118.153398129476	140
4	1640	118.153398129476	141
4	1665	121.336978113813	142
4	1665	121.336978113813	143
4	1686	122.551328684583	144
4	1686	122.551328684583	145
4	1705	124.070813030259	146
4	1705	124.070813030259	147
4	1741	125.59560479612	148
4	1741	125.59560479612	149
4	1752	126.799001141627	150
4	1752	126.799001141627	151
4	1774	128.337685850036	152
4	1774	128.337685850036	153
4	1803	129.608828000739	154
4	1803	129.608828000739	155
4	1820	131.076253895298	156
4	1820	131.076253895298	157
4	1843	133.00613199798	158
4	1843	133.00613199798	159
4	1868	134.775988596549	160
4	1868	134.775988596549	161
4	1889	136.004925095352	162
4	1889	136.004925095352	163
4	1914	137.244023302989	164
4	1914	137.244023302989	165
4	1948	139.171801919961	166
4	1948	139.171801919961	167
4	1967	140.464741747993	168
4	1967	140.464741747993	169
4	2014	143.80171538217	170
4	2014	143.80171538217	171
4	2026	145.68662247545	172
4	2026	145.68662247545	173
4	2056	146.838720060397	174
4	2056	146.838720060397	175
4	2070	148.051394822301	176
4	2070	148.051394822301	177
4	2094	149.115350789711	178
4	2094	149.115350789711	179
4	2116	150.848820401213	180
4	2116	150.848820401213	181
4	2148	152.346785564614	182
4	2148	152.346785564614	183
4	2162	153.356520244741	184
4	2162	153.356520244741	185
4	2186	154.910263937291	186
4	2186	154.910263937291	187
4	2208	156.461183565883	188
4	2208	156.461183565883	189
4	2244	157.735723062772	190
4	2244	157.735723062772	191
4	2254	159.055604582646	192
4	2254	159.055604582646	193
4	2277	160.284796817375	194
4	2277	160.284796817375	195
4	2301	161.547953963719	196
4	2301	161.547953963719	197
4	2327	165.515913929745	198
4	2327	165.515913929745	199
4	2350	167.279438122381	200
4	2350	167.279438122381	201
4	2378	168.436956430589	202
4	2378	168.436956430589	203
4	2398	169.856514318218	204
4	2398	169.856514318218	205
4	2419	171.504760993621	206
4	2419	171.504760993621	207
4	2451	173.09042925764	208
4	2451	173.09042925764	209
4	2472	176.51369297444	210
4	2472	176.51369297444	211
4	2490	177.704370237444	212
4	2490	177.704370237444	213
4	2513	179.355301190564	214
4	2513	179.355301190564	215
4	2537	181.325169944959	216
4	2537	181.325169944959	217
4	2559	182.953094920241	218
4	2559	182.953094920241	219
4	2584	186.124789041201	220
4	2584	186.124789041201	221
4	2608	187.470265256582	222
4	2608	187.470265256582	223
4	2632	189.361028892731	224
4	2632	189.361028892731	225
4	2674	192.334284021048	226
4	2674	192.334284021048	227
4	2722	198.319696811681	228
4	2722	198.319696811681	229
4	2748	200.056402237696	230
4	2748	200.056402237696	231
4	2767	201.830070465262	232
4	2767	201.830070465262	233
4	2790	203.010887226936	234
4	2790	203.010887226936	235
4	2812	204.564827826764	236
4	2812	204.564827826764	237
4	2836	205.573254292246	238
4	2836	205.573254292246	239
4	2858	206.84430893288	240
4	2858	206.84430893288	241
4	2885	208.627345736927	242
4	2885	208.627345736927	243
4	2909	210.553963880072	244
4	2909	210.553963880072	245
4	2927	211.627901142774	246
4	2927	211.627901142774	247
4	2950	213.587871011272	248
4	2950	213.587871011272	249
4	2986	215.218106252057	250
4	2986	215.218106252057	251
4	3000	218.519471885146	252
4	3000	218.519471885146	253
4	3021	220.313260825391	254
4	3021	220.313260825391	255
4	3044	221.842227589342	256
4	3044	221.842227589342	257
4	3070	224.820985019426	258
4	3070	224.820985019426	259
4	3093	226.78004055691	260
4	3093	226.78004055691	261
4	3121	228.133095654443	262
4	3121	228.133095654443	263
4	3142	230.697154429087	264
4	3142	230.697154429087	265
4	3163	231.980021421867	266
4	3163	231.980021421867	267
4	3186	233.601777025753	268
4	3186	233.601777025753	269
4	3210	235.028128376827	270
4	3210	235.028128376827	271
4	3232	236.447984670315	272
4	3232	236.447984670315	273
4	3255	237.903543592286	274
4	3255	237.903543592286	275
4	3284	239.648722395774	276
4	3284	239.648722395774	277
5	20	0.190616336646	0
5	20	0.190616336646	1
5	20	0.190616336646	2
5	38	1.784422255105	3
5	38	1.784422255105	4
5	38	1.784422255105	5
5	60	3.322536122931	6
5	60	3.322536122931	7
5	60	3.322536122931	8
5	89	5.021662327126	9
5	89	5.021662327126	10
5	89	5.021662327126	11
5	106	6.621166578676	12
5	106	6.621166578676	13
5	106	6.621166578676	14
5	135	7.977621426487	15
5	135	7.977621426487	16
5	135	7.977621426487	17
5	158	9.523729910187	18
5	158	9.523729910187	19
5	158	9.523729910187	20
5	177	11.407945836055	21
5	177	11.407945836055	22
5	177	11.407945836055	23
5	204	12.844112380949	24
5	204	12.844112380949	25
5	204	12.844112380949	26
5	221	14.484258159925	27
5	221	14.484258159925	28
5	221	14.484258159925	29
5	250	15.754199606427	30
5	250	15.754199606427	31
5	250	15.754199606427	32
5	267	17.400314852349	33
5	267	17.400314852349	34
5	267	17.400314852349	35
5	290	18.700074194564	36
5	290	18.700074194564	37
5	290	18.700074194564	38
5	317	20.033672628897	39
5	317	20.033672628897	40
5	317	20.033672628897	41
5	339	21.207218075557	42
5	339	21.207218075557	43
5	339	21.207218075557	44
5	362	22.619288233787	45
5	362	22.619288233787	46
5	362	22.619288233787	47
5	385	23.616673663592	48
5	385	23.616673663592	49
5	385	23.616673663592	50
5	408	24.895120598537	51
5	408	24.895120598537	52
5	408	24.895120598537	53
5	427	26.101004941312	54
5	427	26.101004941312	55
5	427	26.101004941312	56
5	454	27.78583545389	57
5	454	27.78583545389	58
5	454	27.78583545389	59
5	480	29.63520001551	60
5	480	29.63520001551	61
5	480	29.63520001551	62
5	496	30.920272719519	63
5	496	30.920272719519	64
5	496	30.920272719519	65
5	523	32.441453476052	66
5	523	32.441453476052	67
5	523	32.441453476052	68
5	549	33.547037543236	69
5	549	33.547037543236	70
5	549	33.547037543236	71
5	564	35.316220577376	72
5	564	35.316220577376	73
5	564	35.316220577376	74
5	597	38.566524098631	75
5	597	38.566524098631	76
5	597	38.566524098631	77
5	615	40.164232765548	78
5	615	40.164232765548	79
5	615	40.164232765548	80
5	637	41.581121295481	81
5	637	41.581121295481	82
5	637	41.581121295481	83
5	666	42.682450165332	84
5	666	42.682450165332	85
5	666	42.682450165332	86
5	687	44.155420697905	87
5	687	44.155420697905	88
5	687	44.155420697905	89
5	707	45.939380338059	90
5	707	45.939380338059	91
5	707	45.939380338059	92
5	735	47.84615980514	93
5	735	47.84615980514	94
5	735	47.84615980514	95
5	755	49.216511365824	96
5	755	49.216511365824	97
5	755	49.216511365824	98
5	779	52.16055966041	99
5	779	52.16055966041	100
5	779	52.16055966041	101
5	808	55.842496830183	102
5	808	55.842496830183	103
5	808	55.842496830183	104
5	826	58.460842769009	105
5	826	58.460842769009	106
5	826	58.460842769009	107
5	853	59.740421393101	108
5	853	59.740421393101	109
5	853	59.740421393101	110
5	873	61.689129964722	111
5	873	61.689129964722	112
5	873	61.689129964722	113
5	902	62.9464975608	114
5	902	62.9464975608	115
5	902	62.9464975608	116
5	923	64.311771216906	117
5	923	64.311771216906	118
5	923	64.311771216906	119
5	945	65.393813759416	120
5	945	65.393813759416	121
5	945	65.393813759416	122
5	968	67.221306041058	123
5	968	67.221306041058	124
5	968	67.221306041058	125
5	991	68.879670831511	126
5	991	68.879670831511	127
5	991	68.879670831511	128
5	1017	69.978799826909	129
5	1017	69.978799826909	130
5	1017	69.978799826909	131
5	1040	71.467598042887	132
5	1040	71.467598042887	133
5	1040	71.467598042887	134
5	1055	72.976974548077	135
5	1055	72.976974548077	136
5	1055	72.976974548077	137
5	1079	74.00440843592	138
5	1079	74.00440843592	139
5	1079	74.00440843592	140
5	1109	76.027728383213	141
5	1109	76.027728383213	142
5	1109	76.027728383213	143
5	1128	76.999331866841	144
5	1128	76.999331866841	145
5	1128	76.999331866841	146
5	1155	78.867918425902	147
5	1155	78.867918425902	148
5	1155	78.867918425902	149
5	1171	80.634452922037	150
5	1171	80.634452922037	151
5	1171	80.634452922037	152
5	1197	82.227645717649	153
5	1197	82.227645717649	154
5	1197	82.227645717649	155
5	1226	85.323511168129	156
5	1226	85.323511168129	157
5	1226	85.323511168129	158
5	1246	87.273763883996	159
5	1246	87.273763883996	160
5	1246	87.273763883996	161
5	1265	88.600774578858	162
5	1265	88.600774578858	163
5	1265	88.600774578858	164
5	1289	89.710166602419	165
5	1289	89.710166602419	166
5	1289	89.710166602419	167
5	1315	91.318152031497	168
5	1315	91.318152031497	169
5	1315	91.318152031497	170
5	1343	94.239496381298	171
5	1343	94.239496381298	172
5	1343	94.239496381298	173
5	1362	95.384041869484	174
5	1362	95.384041869484	175
5	1362	95.384041869484	176
5	1391	98.628819056962	177
5	1391	98.628819056962	178
5	1391	98.628819056962	179
5	1414	100.303777895038	180
5	1414	100.303777895038	181
5	1414	100.303777895038	182
5	1437	102.16703523292	183
5	1437	102.16703523292	184
5	1437	102.16703523292	185
5	1460	104.036812181574	186
5	1460	104.036812181574	187
5	1460	104.036812181574	188
5	1480	105.38367284819	189
5	1480	105.38367284819	190
5	1480	105.38367284819	191
5	1499	106.758822928538	192
5	1499	106.758822928538	193
5	1499	106.758822928538	194
5	1526	110.216672937495	195
5	1526	110.216672937495	196
5	1526	110.216672937495	197
5	1550	111.575962932351	198
5	1550	111.575962932351	199
5	1550	111.575962932351	200
5	1577	113.481900459262	201
5	1577	113.481900459262	202
5	1577	113.481900459262	203
5	1593	115.315943925432	204
5	1593	115.315943925432	205
5	1593	115.315943925432	206
5	1623	116.757685137756	207
5	1623	116.757685137756	208
5	1623	116.757685137756	209
5	1644	118.158433628491	210
5	1644	118.158433628491	211
5	1644	118.158433628491	212
5	1671	121.354969683652	213
5	1671	121.354969683652	214
5	1671	121.354969683652	215
5	1687	122.556419512996	216
5	1687	122.556419512996	217
5	1687	122.556419512996	218
5	1713	124.091495141494	219
5	1713	124.091495141494	220
5	1713	124.091495141494	221
5	1734	125.57970199301	222
5	1734	125.57970199301	223
5	1734	125.57970199301	224
5	1763	126.846431283077	225
5	1763	126.846431283077	226
5	1763	126.846431283077	227
5	1786	128.367764822681	228
5	1786	128.367764822681	229
5	1786	128.367764822681	230
5	1802	129.606836507778	231
5	1802	129.606836507778	232
5	1802	129.606836507778	233
5	1829	131.106812296943	234
5	1829	131.106812296943	235
5	1829	131.106812296943	236
5	1855	133.036965437681	237
5	1855	133.036965437681	238
5	1855	133.036965437681	239
5	1876	134.784125325169	240
5	1876	134.784125325169	241
5	1876	134.784125325169	242
5	1898	136.036874654986	243
5	1898	136.036874654986	244
5	1898	136.036874654986	245
5	1924	137.272899785476	246
5	1924	137.272899785476	247
5	1924	137.272899785476	248
5	1944	139.143977492146	249
5	1944	139.143977492146	250
5	1944	139.143977492146	251
5	1968	140.465765206672	252
5	1968	140.465765206672	253
5	1968	140.465765206672	254
5	1987	141.9422946921	255
5	1987	141.9422946921	256
5	1987	141.9422946921	257
5	2010	143.782893857124	258
5	2010	143.782893857124	259
5	2010	143.782893857124	260
5	2036	145.696962199361	261
5	2036	145.696962199361	262
5	2036	145.696962199361	263
5	2057	146.844308318883	264
5	2057	146.844308318883	265
5	2057	146.844308318883	266
5	2078	148.070228567369	267
5	2078	148.070228567369	268
5	2078	148.070228567369	269
5	2100	149.124028048838	270
5	2100	149.124028048838	271
5	2100	149.124028048838	272
5	2124	150.863265718504	273
5	2124	150.863265718504	274
5	2124	150.863265718504	275
5	2149	152.356489470686	276
5	2149	152.356489470686	277
5	2149	152.356489470686	278
5	2171	153.379688873775	279
5	2171	153.379688873775	280
5	2171	153.379688873775	281
5	2192	154.927315182273	282
5	2192	154.927315182273	283
5	2192	154.927315182273	284
5	2216	156.479892256906	285
5	2216	156.479892256906	286
5	2216	156.479892256906	287
5	2236	157.710373559717	288
5	2236	157.710373559717	289
5	2236	157.710373559717	290
5	2261	159.075698850421	291
5	2261	159.075698850421	292
5	2261	159.075698850421	293
5	2289	160.306106660101	294
5	2289	160.306106660101	295
5	2289	160.306106660101	296
5	2306	161.551281380844	297
5	2306	161.551281380844	298
5	2306	161.551281380844	299
5	2339	165.548429722779	300
5	2339	165.548429722779	301
5	2339	165.548429722779	302
5	2357	167.297910287925	303
5	2357	167.297910287925	304
5	2357	167.297910287925	305
5	2377	168.436160192023	306
5	2377	168.436160192023	307
5	2377	168.436160192023	308
5	2408	169.890120579515	309
5	2408	169.890120579515	310
5	2408	169.890120579515	311
5	2431	171.554868801226	312
5	2431	171.554868801226	313
5	2431	171.554868801226	314
5	2452	173.091982081779	315
5	2452	173.091982081779	316
5	2452	173.091982081779	317
5	2474	176.518243664964	318
5	2474	176.518243664964	319
5	2474	176.518243664964	320
5	2498	177.719291733915	321
5	2498	177.719291733915	322
5	2498	177.719291733915	323
5	2522	179.37002449789	324
5	2522	179.37002449789	325
5	2522	179.37002449789	326
5	2542	181.329804735972	327
5	2542	181.329804735972	328
5	2542	181.329804735972	329
5	2571	182.971419690972	330
5	2571	182.971419690972	331
5	2571	182.971419690972	332
5	2596	186.176650737149	333
5	2596	186.176650737149	334
5	2596	186.176650737149	335
5	2616	187.481756572848	336
5	2616	187.481756572848	337
5	2616	187.481756572848	338
5	2642	189.376529147376	339
5	2642	189.376529147376	340
5	2642	189.376529147376	341
5	2662	191.031640821757	342
5	2662	191.031640821757	343
5	2662	191.031640821757	344
5	2685	192.347026309179	345
5	2685	192.347026309179	346
5	2685	192.347026309179	347
5	2705	193.758183580545	348
5	2705	193.758183580545	349
5	2705	193.758183580545	350
5	2732	198.334736475813	351
5	2732	198.334736475813	352
5	2732	198.334736475813	353
5	2755	200.076426604859	354
5	2755	200.076426604859	355
5	2755	200.076426604859	356
5	2774	201.849341219309	357
5	2774	201.849341219309	358
5	2774	201.849341219309	359
5	2794	203.01842949848	360
5	2794	203.01842949848	361
5	2794	203.01842949848	362
5	2819	204.578066100964	363
5	2819	204.578066100964	364
5	2819	204.578066100964	365
5	2847	205.673823754525	366
5	2847	205.673823754525	367
5	2847	205.673823754525	368
5	2866	206.861819242485	369
5	2866	206.861819242485	370
5	2866	206.861819242485	371
5	2886	208.629713654065	372
5	2886	208.629713654065	373
5	2886	208.629713654065	374
5	2916	210.593243662483	375
5	2916	210.593243662483	376
5	2916	210.593243662483	377
5	2939	211.665249910821	378
5	2939	211.665249910821	379
5	2939	211.665249910821	380
5	2962	213.618932934353	381
5	2962	213.618932934353	382
5	2962	213.618932934353	383
5	2982	215.207957897088	384
5	2982	215.207957897088	385
5	2982	215.207957897088	386
5	3008	218.526492550926	387
5	3008	218.526492550926	388
5	3008	218.526492550926	389
5	3033	220.371588580882	390
5	3033	220.371588580882	391
5	3033	220.371588580882	392
5	3056	221.891878955372	393
5	3056	221.891878955372	394
5	3056	221.891878955372	395
5	3081	224.852394632415	396
5	3081	224.852394632415	397
5	3081	224.852394632415	398
5	3104	226.803650386602	399
5	3104	226.803650386602	400
5	3104	226.803650386602	401
5	3120	228.126957967932	402
5	3120	228.126957967932	403
5	3120	228.126957967932	404
5	3150	230.704039975293	405
5	3150	230.704039975293	406
5	3150	230.704039975293	407
5	3171	231.991458806779	408
5	3171	231.991458806779	409
5	3171	231.991458806779	410
5	3198	233.625437124766	411
5	3198	233.625437124766	412
5	3198	233.625437124766	413
5	3214	235.035369614645	414
5	3214	235.035369614645	415
5	3214	235.035369614645	416
5	3241	236.475632301683	417
5	3241	236.475632301683	418
5	3241	236.475632301683	419
5	3267	237.948896286874	420
5	3267	237.948896286874	421
5	3267	237.948896286874	422
5	3283	239.64746278297	423
5	3283	239.64746278297	424
5	3283	239.64746278297	425
6	23	0.200616336646	0
6	41	1.794422255105	1
6	65	3.332536122931	2
6	92	5.031662327126	3
6	112	6.631166578676	4
6	161	9.533729910187	5
6	207	12.854112380949	6
6	230	14.494258159925	7
6	253	15.764199606427	8
6	274	17.410314852349	9
6	296	18.710074194564	10
6	322	20.043672628897	11
6	345	21.217218075557	12
6	368	22.629288233787	13
6	391	23.626673663592	14
6	414	24.905120598537	15
6	432	26.111004941312	16
6	458	27.79583545389	17
6	483	29.64520001551	18
6	504	30.930272719519	19
6	552	33.557037543236	20
6	569	35.326220577376	21
6	600	38.576524098631	22
6	623	40.174232765548	23
6	646	41.591121295481	24
6	669	42.692450165332	25
6	692	44.165420697905	26
6	711	45.949380338059	27
6	738	47.85615980514	28
6	761	49.226511365824	29
6	783	52.17055966041	30
6	831	58.470842769009	31
6	879	61.699129964722	32
6	905	62.9564975608	33
6	928	64.321771216906	34
6	972	67.231306041058	35
6	1020	69.988799826909	36
6	1043	71.477598042887	37
6	1058	72.986974548077	38
6	1084	74.01440843592	39
6	1112	76.037728383213	40
6	1135	77.009331866841	41
6	1158	78.877918425902	42
6	1179	80.644452922037	43
6	1204	82.237645717649	44
6	1229	85.333511168129	45
6	1250	87.283763883996	46
6	1272	88.610774578858	47
6	1296	89.720166602419	48
6	1319	91.328152031497	49
6	1369	95.394041869484	50
6	1417	100.313777895038	51
6	1440	102.17703523292	52
6	1463	104.046812181574	53
6	1486	105.39367284819	54
6	1507	106.768822928538	55
6	1530	110.226672937495	56
6	1557	111.585962932351	57
6	1580	113.491900459262	58
6	1596	115.325943925432	59
6	1626	116.767685137756	60
6	1649	118.168433628491	61
6	1692	122.566419512996	62
6	1717	124.101495141494	63
6	1740	125.58970199301	64
6	1766	126.856431283077	65
6	1810	129.616836507778	66
6	1835	131.116812296943	67
6	1858	133.046965437681	68
6	1881	134.794125325169	69
6	1904	136.046874654986	70
6	1927	137.282899785476	71
6	1947	139.153977492146	72
6	1973	140.475765206672	73
6	2039	145.706962199361	74
6	2085	148.080228567369	75
6	2108	149.134028048838	76
6	2154	152.366489470686	77
6	2177	153.389688873775	78
6	2195	154.937315182273	79
6	2220	156.489892256906	80
6	2243	157.720373559717	81
6	2264	159.085698850421	82
6	2292	160.316106660101	83
6	2315	161.561281380844	84
6	2342	165.558429722779	85
6	2360	167.307910287925	86
6	2382	168.446160192023	87
6	2411	169.900120579515	88
6	2434	171.564868801226	89
6	2457	173.101982081779	90
6	2482	176.528243664964	91
6	2505	177.729291733915	92
6	2528	179.38002449789	93
6	2548	181.339804735972	94
6	2574	182.981419690972	95
6	2599	186.186650737149	96
6	2645	189.386529147376	97
6	2688	192.357026309179	98
6	2708	193.768183580545	99
6	2735	198.344736475813	100
6	2758	200.086426604859	101
6	2800	203.02842949848	102
6	2822	204.588066100964	103
6	2850	205.683823754525	104
6	2873	206.871819242485	105
6	2892	208.639713654065	106
6	2919	210.603243662483	107
6	2942	211.675249910821	108
6	2965	213.628932934353	109
6	2985	215.217957897088	110
6	3013	218.536492550926	111
6	3036	220.381588580882	112
6	3059	221.901878955372	113
6	3084	224.862394632415	114
6	3107	226.813650386602	115
6	3128	228.136957967932	116
6	3155	230.714039975293	117
6	3178	232.001458806779	118
6	3201	233.635437124766	119
6	3219	235.045369614645	120
6	3247	236.485632301683	121
6	3270	237.958896286874	122
6	3287	239.65746278297	123

