version 2
run General-4-20230921-21:39:15-6065
attr configname General
attr datetime 20230921-21:39:15
attr experiment General
attr inifile omnetpp.ini
attr iterationvars ""
attr iterationvarsf ""
attr measurement ""
attr network Network2
attr processid 6065
attr repetition 4
attr replication #4
attr resultdir results
attr runnumber 4
attr seedset 4
param Network2.node[*].transmissionTime "uniform(1s, 2s)"
param Network2.node[*].delayTime "uniform(0.01s, 0.2s)"
param Network2.node[*].processingTime exponential(0.01s)
param Network2.node[*].lossProbability 0.1

vector 0 Network2.node[0] txVector ETV
vector 1 Network2.node[1] txVector ETV
vector 2 Network2.node[6] txVector ETV
vector 3 Network2.node[3] txVector ETV
vector 4 Network2.node[2] txVector ETV
vector 5 Network2.node[4] txVector ETV
vector 6 Network2.node[5] rxVector ETV
0	1	0.193735669288	0
0	24	2.094357123985	1
0	47	3.957350359219	2
0	70	5.403699559779	3
0	93	6.948902213634	4
0	116	8.307668586881	5
0	139	10.137856684313	6
0	162	11.233054761696	7
0	185	12.342872881019	8
0	208	14.27028149149	9
0	210	16.249897754673	10
0	233	17.873466593368	11
0	256	19.790978402054	12
0	279	20.824856019268	13
0	302	22.324817473456	14
0	325	23.459570079265	15
0	348	24.723830588549	16
0	350	26.679635184506	17
0	373	27.831520787129	18
0	396	29.209365803204	19
0	419	31.07002166837	20
0	442	32.778166542449	21
0	465	34.537652683598	22
0	488	36.37352722107	23
0	511	37.456234831983	24
0	534	39.254328875258	25
0	557	40.453384526694	26
0	580	41.944320687014	27
0	582	43.621388020846	28
0	605	44.940813211878	29
0	628	46.182958858241	30
0	651	47.210059260637	31
0	674	48.868135975128	32
0	697	50.429998244544	33
0	699	52.300948293566	34
0	722	54.266477603385	35
0	745	56.119651034394	36
0	768	57.513739840746	37
0	791	58.802594766174	38
0	814	60.067989731594	39
0	837	61.585589853269	40
0	860	63.237981327963	41
0	862	64.716331858342	42
0	864	65.799155386552	43
0	887	67.762904828336	44
0	910	68.991628607657	45
0	933	70.289955603346	46
0	956	72.089542011419	47
0	979	73.547301218999	48
0	1002	75.155386333974	49
0	1025	76.814285399081	50
0	1027	78.656325287107	51
0	1050	80.562887119749	52
0	1073	81.813823314305	53
0	1093	83.647635232346	54
0	1116	85.267285580436	55
0	1139	86.326170756869	56
0	1162	88.31308285372	57
0	1169	90.158404227967	58
0	1171	91.254449373965	59
0	1194	92.700782995128	60
0	1217	93.803703775552	61
0	1240	95.09418559998	62
0	1242	96.163780916871	63
0	1244	97.634728292159	64
0	1267	99.18005175322	65
0	1290	100.334209367788	66
0	1313	101.45612296268	67
0	1336	103.087775500879	68
0	1359	104.695359326123	69
0	1382	106.40791341515	70
0	1405	108.021005842758	71
0	1428	109.044753266655	72
0	1451	110.782003442681	73
0	1474	112.301204302738	74
0	1497	113.658719615469	75
0	1520	115.619644510716	76
0	1543	117.152069299172	77
0	1566	118.424876313812	78
0	1589	120.307495601398	79
0	1612	121.530426057211	80
0	1635	123.327958126009	81
0	1658	124.521971657562	82
0	1681	125.754233410039	83
0	1704	127.72082808187	84
0	1706	128.87613448912	85
0	1729	130.644143749184	86
0	1752	132.377349814323	87
0	1775	133.904351368237	88
0	1798	135.344048912327	89
0	1821	136.85869069739	90
0	1844	138.49597319138	91
0	1867	140.308067148707	92
0	1890	141.594465274054	93
0	1913	143.558094554737	94
0	1915	144.771776548743	95
0	1917	146.399583183851	96
0	1940	148.305890912579	97
0	1963	150.192405221209	98
0	1986	151.547110629192	99
0	2009	152.89540427869	100
0	2032	154.474168043042	101
0	2055	156.148695818305	102
0	2078	157.599148355814	103
0	2101	158.738568602752	104
0	2124	160.538660480565	105
0	2147	161.674359425594	106
0	2170	162.949082628748	107
0	2193	164.011497209006	108
0	2216	165.978053276119	109
0	2239	167.270676938276	110
0	2262	168.99130974586	111
0	2285	170.582126958686	112
0	2308	172.378567840596	113
0	2331	173.70795336754	114
0	2354	175.071780303884	115
0	2377	177.05990761348	116
0	2400	178.543999371742	117
0	2402	179.77496370945	118
0	2425	180.946379384416	119
0	2448	182.242984756752	120
0	2471	184.189360095345	121
0	2494	186.156771956169	122
0	2517	187.631513464189	123
0	2540	189.175789727055	124
0	2563	190.927851195837	125
0	2565	192.004136994405	126
0	2588	193.119940714136	127
0	2611	194.668071125791	128
0	2634	196.294176829204	129
0	2657	197.806601110537	130
0	2680	199.518697377917	131
0	2703	201.420979828265	132
0	2705	203.2925089569	133
0	2728	204.971062775159	134
0	2730	206.627581432851	135
0	2753	207.687246198224	136
0	2776	209.685884562012	137
0	2799	211.61798258025	138
0	2822	213.553837039199	139
0	2845	215.156595358316	140
0	2868	216.909206754452	141
0	2870	218.199521392508	142
0	2893	220.039900028071	143
0	2916	221.381056777591	144
0	2939	222.431528295314	145
0	2962	223.872921197832	146
0	2985	225.452934070647	147
0	2987	226.537789423874	148
0	3010	227.998403758433	149
0	3033	229.057977579225	150
0	3056	230.970145334646	151
0	3079	232.097705098957	152
0	3102	233.174289186176	153
0	3125	234.978091647539	154
0	3148	236.896382817689	155
0	3171	238.087319528142	156
1	3	0.205631491707	0
1	3	0.205631491707	1
1	3	0.205631491707	2
1	3	0.205631491707	3
1	26	2.145341055476	4
1	26	2.145341055476	5
1	26	2.145341055476	6
1	26	2.145341055476	7
1	49	3.973172654166	8
1	49	3.973172654166	9
1	49	3.973172654166	10
1	49	3.973172654166	11
1	72	5.421131426793	12
1	72	5.421131426793	13
1	72	5.421131426793	14
1	72	5.421131426793	15
1	95	6.959770535871	16
1	95	6.959770535871	17
1	95	6.959770535871	18
1	95	6.959770535871	19
1	118	8.323060431608	20
1	118	8.323060431608	21
1	118	8.323060431608	22
1	118	8.323060431608	23
1	141	10.150308407042	24
1	141	10.150308407042	25
1	141	10.150308407042	26
1	141	10.150308407042	27
1	164	11.254575627035	28
1	164	11.254575627035	29
1	164	11.254575627035	30
1	164	11.254575627035	31
1	187	12.35482583028	32
1	187	12.35482583028	33
1	187	12.35482583028	34
1	187	12.35482583028	35
1	212	16.260766240763	36
1	212	16.260766240763	37
1	212	16.260766240763	38
1	212	16.260766240763	39
1	235	17.91030344118	40
1	235	17.91030344118	41
1	235	17.91030344118	42
1	235	17.91030344118	43
1	258	19.811692789725	44
1	258	19.811692789725	45
1	258	19.811692789725	46
1	258	19.811692789725	47
1	281	20.840126170446	48
1	281	20.840126170446	49
1	281	20.840126170446	50
1	281	20.840126170446	51
1	304	22.348289930666	52
1	304	22.348289930666	53
1	304	22.348289930666	54
1	304	22.348289930666	55
1	327	23.475058226623	56
1	327	23.475058226623	57
1	327	23.475058226623	58
1	327	23.475058226623	59
1	352	26.692140086926	60
1	352	26.692140086926	61
1	352	26.692140086926	62
1	352	26.692140086926	63
1	375	27.846491133017	64
1	375	27.846491133017	65
1	375	27.846491133017	66
1	375	27.846491133017	67
1	398	29.221170453394	68
1	398	29.221170453394	69
1	398	29.221170453394	70
1	398	29.221170453394	71
1	421	31.080278967314	72
1	421	31.080278967314	73
1	421	31.080278967314	74
1	421	31.080278967314	75
1	444	32.825424169144	76
1	444	32.825424169144	77
1	444	32.825424169144	78
1	444	32.825424169144	79
1	467	34.555183192354	80
1	467	34.555183192354	81
1	467	34.555183192354	82
1	467	34.555183192354	83
1	490	36.385229556662	84
1	490	36.385229556662	85
1	490	36.385229556662	86
1	490	36.385229556662	87
1	513	37.470629524362	88
1	513	37.470629524362	89
1	513	37.470629524362	90
1	513	37.470629524362	91
1	536	39.270137763235	92
1	536	39.270137763235	93
1	536	39.270137763235	94
1	536	39.270137763235	95
1	559	40.476879913239	96
1	559	40.476879913239	97
1	559	40.476879913239	98
1	559	40.476879913239	99
1	584	43.644481094503	100
1	584	43.644481094503	101
1	584	43.644481094503	102
1	584	43.644481094503	103
1	607	44.961111709494	104
1	607	44.961111709494	105
1	607	44.961111709494	106
1	607	44.961111709494	107
1	630	46.201232128655	108
1	630	46.201232128655	109
1	630	46.201232128655	110
1	630	46.201232128655	111
1	653	47.226686504515	112
1	653	47.226686504515	113
1	653	47.226686504515	114
1	653	47.226686504515	115
1	676	48.897619633263	116
1	676	48.897619633263	117
1	676	48.897619633263	118
1	676	48.897619633263	119
1	701	52.318297608223	120
1	701	52.318297608223	121
1	701	52.318297608223	122
1	701	52.318297608223	123
1	724	54.28336981056	124
1	724	54.28336981056	125
1	724	54.28336981056	126
1	724	54.28336981056	127
1	747	56.141833953741	128
1	747	56.141833953741	129
1	747	56.141833953741	130
1	747	56.141833953741	131
1	770	57.524592304876	132
1	770	57.524592304876	133
1	770	57.524592304876	134
1	770	57.524592304876	135
1	793	58.821947125749	136
1	793	58.821947125749	137
1	793	58.821947125749	138
1	793	58.821947125749	139
1	816	60.088530941911	140
1	816	60.088530941911	141
1	816	60.088530941911	142
1	816	60.088530941911	143
1	839	61.612078813376	144
1	839	61.612078813376	145
1	839	61.612078813376	146
1	839	61.612078813376	147
1	866	65.827185567553	148
1	866	65.827185567553	149
1	866	65.827185567553	150
1	866	65.827185567553	151
1	889	67.787615520637	152
1	889	67.787615520637	153
1	889	67.787615520637	154
1	889	67.787615520637	155
1	912	69.025950460513	156
1	912	69.025950460513	157
1	912	69.025950460513	158
1	912	69.025950460513	159
1	935	70.309287136579	160
1	935	70.309287136579	161
1	935	70.309287136579	162
1	935	70.309287136579	163
1	958	72.131271191892	164
1	958	72.131271191892	165
1	958	72.131271191892	166
1	958	72.131271191892	167
1	981	73.587902412109	168
1	981	73.587902412109	169
1	981	73.587902412109	170
1	981	73.587902412109	171
1	1004	75.181452069834	172
1	1004	75.181452069834	173
1	1004	75.181452069834	174
1	1004	75.181452069834	175
1	1029	78.671128331898	176
1	1029	78.671128331898	177
1	1029	78.671128331898	178
1	1029	78.671128331898	179
1	1052	80.572961285063	180
1	1052	80.572961285063	181
1	1052	80.572961285063	182
1	1052	80.572961285063	183
1	1075	81.834036494588	184
1	1075	81.834036494588	185
1	1075	81.834036494588	186
1	1075	81.834036494588	187
1	1095	83.663727767779	188
1	1095	83.663727767779	189
1	1095	83.663727767779	190
1	1095	83.663727767779	191
1	1118	85.27842859552	192
1	1118	85.27842859552	193
1	1118	85.27842859552	194
1	1118	85.27842859552	195
1	1141	86.348474651598	196
1	1141	86.348474651598	197
1	1141	86.348474651598	198
1	1141	86.348474651598	199
1	1164	88.352414096602	200
1	1164	88.352414096602	201
1	1164	88.352414096602	202
1	1164	88.352414096602	203
1	1173	91.277574387941	204
1	1173	91.277574387941	205
1	1173	91.277574387941	206
1	1173	91.277574387941	207
1	1196	92.712589357475	208
1	1196	92.712589357475	209
1	1196	92.712589357475	210
1	1196	92.712589357475	211
1	1219	93.814884543085	212
1	1219	93.814884543085	213
1	1219	93.814884543085	214
1	1219	93.814884543085	215
1	1246	97.664605827837	216
1	1246	97.664605827837	217
1	1246	97.664605827837	218
1	1246	97.664605827837	219
1	1269	99.212603389386	220
1	1269	99.212603389386	221
1	1269	99.212603389386	222
1	1269	99.212603389386	223
1	1292	100.351953397423	224
1	1292	100.351953397423	225
1	1292	100.351953397423	226
1	1292	100.351953397423	227
1	1315	101.477284022528	228
1	1315	101.477284022528	229
1	1315	101.477284022528	230
1	1315	101.477284022528	231
1	1338	103.113763722187	232
1	1338	103.113763722187	233
1	1338	103.113763722187	234
1	1338	103.113763722187	235
1	1361	104.7064112023	236
1	1361	104.7064112023	237
1	1361	104.7064112023	238
1	1361	104.7064112023	239
1	1384	106.426435545755	240
1	1384	106.426435545755	241
1	1384	106.426435545755	242
1	1384	106.426435545755	243
1	1407	108.046701074056	244
1	1407	108.046701074056	245
1	1407	108.046701074056	246
1	1407	108.046701074056	247
1	1430	109.059238071819	248
1	1430	109.059238071819	249
1	1430	109.059238071819	250
1	1430	109.059238071819	251
1	1453	110.800020794455	252
1	1453	110.800020794455	253
1	1453	110.800020794455	254
1	1453	110.800020794455	255
1	1476	112.322755817027	256
1	1476	112.322755817027	257
1	1476	112.322755817027	258
1	1476	112.322755817027	259
1	1499	113.684830520628	260
1	1499	113.684830520628	261
1	1499	113.684830520628	262
1	1499	113.684830520628	263
1	1522	115.647339545476	264
1	1522	115.647339545476	265
1	1522	115.647339545476	266
1	1522	115.647339545476	267
1	1545	117.173003339195	268
1	1545	117.173003339195	269
1	1545	117.173003339195	270
1	1545	117.173003339195	271
1	1568	118.46513560839	272
1	1568	118.46513560839	273
1	1568	118.46513560839	274
1	1568	118.46513560839	275
1	1591	120.351425696084	276
1	1591	120.351425696084	277
1	1591	120.351425696084	278
1	1591	120.351425696084	279
1	1614	121.569221125331	280
1	1614	121.569221125331	281
1	1614	121.569221125331	282
1	1614	121.569221125331	283
1	1637	123.339495185941	284
1	1637	123.339495185941	285
1	1637	123.339495185941	286
1	1637	123.339495185941	287
1	1660	124.534972423968	288
1	1660	124.534972423968	289
1	1660	124.534972423968	290
1	1660	124.534972423968	291
1	1683	125.766949911679	292
1	1683	125.766949911679	293
1	1683	125.766949911679	294
1	1683	125.766949911679	295
1	1708	128.89715132475	296
1	1708	128.89715132475	297
1	1708	128.89715132475	298
1	1708	128.89715132475	299
1	1731	130.693118310491	300
1	1731	130.693118310491	301
1	1731	130.693118310491	302
1	1731	130.693118310491	303
1	1754	132.390275696882	304
1	1754	132.390275696882	305
1	1754	132.390275696882	306
1	1754	132.390275696882	307
1	1777	133.916726000634	308
1	1777	133.916726000634	309
1	1777	133.916726000634	310
1	1777	133.916726000634	311
1	1800	135.361361343612	312
1	1800	135.361361343612	313
1	1800	135.361361343612	314
1	1800	135.361361343612	315
1	1823	136.88110362131	316
1	1823	136.88110362131	317
1	1823	136.88110362131	318
1	1823	136.88110362131	319
1	1846	138.522407996603	320
1	1846	138.522407996603	321
1	1846	138.522407996603	322
1	1846	138.522407996603	323
1	1869	140.332345434974	324
1	1869	140.332345434974	325
1	1869	140.332345434974	326
1	1869	140.332345434974	327
1	1892	141.606387615915	328
1	1892	141.606387615915	329
1	1892	141.606387615915	330
1	1892	141.606387615915	331
1	1919	146.416240727327	332
1	1919	146.416240727327	333
1	1919	146.416240727327	334
1	1919	146.416240727327	335
1	1942	148.33102731889	336
1	1942	148.33102731889	337
1	1942	148.33102731889	338
1	1942	148.33102731889	339
1	1965	150.211136945139	340
1	1965	150.211136945139	341
1	1965	150.211136945139	342
1	1965	150.211136945139	343
1	1988	151.575620593116	344
1	1988	151.575620593116	345
1	1988	151.575620593116	346
1	1988	151.575620593116	347
1	2011	152.922296595436	348
1	2011	152.922296595436	349
1	2011	152.922296595436	350
1	2011	152.922296595436	351
1	2034	154.487196968464	352
1	2034	154.487196968464	353
1	2034	154.487196968464	354
1	2034	154.487196968464	355
1	2057	156.161179617671	356
1	2057	156.161179617671	357
1	2057	156.161179617671	358
1	2057	156.161179617671	359
1	2080	157.636189636848	360
1	2080	157.636189636848	361
1	2080	157.636189636848	362
1	2080	157.636189636848	363
1	2103	158.750951652354	364
1	2103	158.750951652354	365
1	2103	158.750951652354	366
1	2103	158.750951652354	367
1	2126	160.550670848024	368
1	2126	160.550670848024	369
1	2126	160.550670848024	370
1	2126	160.550670848024	371
1	2149	161.687765525999	372
1	2149	161.687765525999	373
1	2149	161.687765525999	374
1	2149	161.687765525999	375
1	2172	162.961187543645	376
1	2172	162.961187543645	377
1	2172	162.961187543645	378
1	2172	162.961187543645	379
1	2195	164.03269055244	380
1	2195	164.03269055244	381
1	2195	164.03269055244	382
1	2195	164.03269055244	383
1	2218	165.994844895357	384
1	2218	165.994844895357	385
1	2218	165.994844895357	386
1	2218	165.994844895357	387
1	2241	167.292134038742	388
1	2241	167.292134038742	389
1	2241	167.292134038742	390
1	2241	167.292134038742	391
1	2264	169.003876719536	392
1	2264	169.003876719536	393
1	2264	169.003876719536	394
1	2264	169.003876719536	395
1	2287	170.599899475599	396
1	2287	170.599899475599	397
1	2287	170.599899475599	398
1	2287	170.599899475599	399
1	2310	172.420816775041	400
1	2310	172.420816775041	401
1	2310	172.420816775041	402
1	2310	172.420816775041	403
1	2333	173.7194072566	404
1	2333	173.7194072566	405
1	2333	173.7194072566	406
1	2333	173.7194072566	407
1	2356	175.085478669593	408
1	2356	175.085478669593	409
1	2356	175.085478669593	410
1	2356	175.085478669593	411
1	2379	177.083592416404	412
1	2379	177.083592416404	413
1	2379	177.083592416404	414
1	2379	177.083592416404	415
1	2404	179.786911917197	416
1	2404	179.786911917197	417
1	2404	179.786911917197	418
1	2404	179.786911917197	419
1	2427	180.960874229808	420
1	2427	180.960874229808	421
1	2427	180.960874229808	422
1	2427	180.960874229808	423
1	2450	182.256026722988	424
1	2450	182.256026722988	425
1	2450	182.256026722988	426
1	2450	182.256026722988	427
1	2473	184.209443563834	428
1	2473	184.209443563834	429
1	2473	184.209443563834	430
1	2473	184.209443563834	431
1	2496	186.167132448771	432
1	2496	186.167132448771	433
1	2496	186.167132448771	434
1	2496	186.167132448771	435
1	2519	187.695658865186	436
1	2519	187.695658865186	437
1	2519	187.695658865186	438
1	2519	187.695658865186	439
1	2542	189.199616997484	440
1	2542	189.199616997484	441
1	2542	189.199616997484	442
1	2542	189.199616997484	443
1	2567	192.0220814098	444
1	2567	192.0220814098	445
1	2567	192.0220814098	446
1	2567	192.0220814098	447
1	2590	193.142327594276	448
1	2590	193.142327594276	449
1	2590	193.142327594276	450
1	2590	193.142327594276	451
1	2613	194.698448562079	452
1	2613	194.698448562079	453
1	2613	194.698448562079	454
1	2613	194.698448562079	455
1	2636	196.312242346542	456
1	2636	196.312242346542	457
1	2636	196.312242346542	458
1	2636	196.312242346542	459
1	2659	197.821460177855	460
1	2659	197.821460177855	461
1	2659	197.821460177855	462
1	2659	197.821460177855	463
1	2682	199.530223136133	464
1	2682	199.530223136133	465
1	2682	199.530223136133	466
1	2682	199.530223136133	467
1	2707	203.312876596963	468
1	2707	203.312876596963	469
1	2707	203.312876596963	470
1	2707	203.312876596963	471
1	2732	206.640447511543	472
1	2732	206.640447511543	473
1	2732	206.640447511543	474
1	2732	206.640447511543	475
1	2755	207.698902255464	476
1	2755	207.698902255464	477
1	2755	207.698902255464	478
1	2755	207.698902255464	479
1	2778	209.696409470116	480
1	2778	209.696409470116	481
1	2778	209.696409470116	482
1	2778	209.696409470116	483
1	2801	211.641597068372	484
1	2801	211.641597068372	485
1	2801	211.641597068372	486
1	2801	211.641597068372	487
1	2824	213.582461332216	488
1	2824	213.582461332216	489
1	2824	213.582461332216	490
1	2824	213.582461332216	491
1	2847	215.170127367506	492
1	2847	215.170127367506	493
1	2847	215.170127367506	494
1	2847	215.170127367506	495
1	2872	218.211761222736	496
1	2872	218.211761222736	497
1	2872	218.211761222736	498
1	2872	218.211761222736	499
1	2895	220.058228922867	500
1	2895	220.058228922867	501
1	2895	220.058228922867	502
1	2895	220.058228922867	503
1	2918	221.396047853301	504
1	2918	221.396047853301	505
1	2918	221.396047853301	506
1	2918	221.396047853301	507
1	2941	222.453139648221	508
1	2941	222.453139648221	509
1	2941	222.453139648221	510
1	2941	222.453139648221	511
1	2964	223.885035929839	512
1	2964	223.885035929839	513
1	2964	223.885035929839	514
1	2964	223.885035929839	515
1	2989	226.58078264378	516
1	2989	226.58078264378	517
1	2989	226.58078264378	518
1	2989	226.58078264378	519
1	3012	228.01841376904	520
1	3012	228.01841376904	521
1	3012	228.01841376904	522
1	3012	228.01841376904	523
1	3035	229.072340836983	524
1	3035	229.072340836983	525
1	3035	229.072340836983	526
1	3035	229.072340836983	527
1	3058	230.980154077947	528
1	3058	230.980154077947	529
1	3058	230.980154077947	530
1	3058	230.980154077947	531
1	3081	232.111369680856	532
1	3081	232.111369680856	533
1	3081	232.111369680856	534
1	3081	232.111369680856	535
1	3104	233.196608237629	536
1	3104	233.196608237629	537
1	3104	233.196608237629	538
1	3104	233.196608237629	539
1	3127	234.988938514973	540
1	3127	234.988938514973	541
1	3127	234.988938514973	542
1	3127	234.988938514973	543
1	3150	236.907441846221	544
1	3150	236.907441846221	545
1	3150	236.907441846221	546
1	3150	236.907441846221	547
1	3173	238.107523442753	548
1	3173	238.107523442753	549
1	3173	238.107523442753	550
1	3173	238.107523442753	551
2	8	0.218066095948	0
2	8	0.218066095948	1
2	37	2.173411934115	2
2	37	2.173411934115	3
2	60	4.003263063157	4
2	60	4.003263063157	5
2	79	5.435837359764	6
2	79	5.435837359764	7
2	106	6.996278729865	8
2	106	6.996278729865	9
2	124	8.337783205261	10
2	124	8.337783205261	11
2	156	10.185305900072	12
2	156	10.185305900072	13
2	173	11.282362209658	14
2	173	11.282362209658	15
2	193	12.36981449073	16
2	193	12.36981449073	17
2	217	16.277463889511	18
2	217	16.277463889511	19
2	241	17.928546676701	20
2	241	17.928546676701	21
2	264	19.831233220632	22
2	264	19.831233220632	23
2	287	20.862871987425	24
2	287	20.862871987425	25
2	315	22.375975319234	26
2	315	22.375975319234	27
2	332	23.501537360994	28
2	332	23.501537360994	29
2	358	26.703224798641	30
2	358	26.703224798641	31
2	380	27.860583596618	32
2	380	27.860583596618	33
2	410	29.250740628961	34
2	410	29.250740628961	35
2	432	31.121117849009	36
2	432	31.121117849009	37
2	455	32.848784398301	38
2	455	32.848784398301	39
2	473	34.567365055858	40
2	473	34.567365055858	41
2	496	36.402258700966	42
2	496	36.402258700966	43
2	518	37.483227520869	44
2	518	37.483227520869	45
2	541	39.2845280333	46
2	541	39.2845280333	47
2	565	40.489198767545	48
2	565	40.489198767545	49
2	591	43.656651605489	50
2	591	43.656651605489	51
2	614	44.979580153883	52
2	614	44.979580153883	53
2	635	46.221949523503	54
2	635	46.221949523503	55
2	664	47.26061602506	56
2	664	47.26061602506	57
2	681	48.911006275623	58
2	681	48.911006275623	59
2	708	52.334830871272	60
2	708	52.334830871272	61
2	729	54.296663046488	62
2	729	54.296663046488	63
2	752	56.161909550599	64
2	752	56.161909550599	65
2	776	57.54146510495	66
2	776	57.54146510495	67
2	798	58.835868986227	68
2	798	58.835868986227	69
2	821	60.099173902816	70
2	821	60.099173902816	71
2	844	61.625250518378	72
2	844	61.625250518378	73
2	871	65.840026486638	74
2	871	65.840026486638	75
2	903	67.811777960266	76
2	903	67.811777960266	77
2	926	69.063337229168	78
2	926	69.063337229168	79
2	941	70.32272254271	80
2	941	70.32272254271	81
2	963	72.144669690579	82
2	963	72.144669690579	83
2	986	73.602337478822	84
2	986	73.602337478822	85
2	1010	75.194560835417	86
2	1010	75.194560835417	87
2	1036	78.685850402361	88
2	1036	78.685850402361	89
2	1063	80.600451318562	90
2	1063	80.600451318562	91
2	1101	83.682880961038	92
2	1101	83.682880961038	93
2	1123	85.288739083813	94
2	1123	85.288739083813	95
2	1146	86.371506888094	96
2	1146	86.371506888094	97
2	1178	91.288867056186	98
2	1178	91.288867056186	99
2	1203	92.738315811938	100
2	1203	92.738315811938	101
2	1225	93.833485178294	102
2	1225	93.833485178294	103
2	1252	97.677853403962	104
2	1252	97.677853403962	105
2	1276	99.224785520772	106
2	1276	99.224785520772	107
2	1297	100.368174791156	108
2	1297	100.368174791156	109
2	1322	101.496499120369	110
2	1322	101.496499120369	111
2	1343	103.133307650017	112
2	1343	103.133307650017	113
2	1367	104.718251997229	114
2	1367	104.718251997229	115
2	1398	106.45143549605	116
2	1398	106.45143549605	117
2	1414	108.069273185939	118
2	1414	108.069273185939	119
2	1435	109.070194731169	120
2	1435	109.070194731169	121
2	1465	110.828415182536	122
2	1465	110.828415182536	123
2	1481	112.335919332977	124
2	1481	112.335919332977	125
2	1504	113.694861026902	126
2	1504	113.694861026902	127
2	1540	115.725756084326	128
2	1540	115.725756084326	129
2	1551	117.185334170114	130
2	1551	117.185334170114	131
2	1586	118.521377339708	132
2	1586	118.521377339708	133
2	1597	120.371785390056	134
2	1597	120.371785390056	135
2	1620	121.586561050653	136
2	1620	121.586561050653	137
2	1643	123.357444051731	138
2	1643	123.357444051731	139
2	1665	124.545106693059	140
2	1665	124.545106693059	141
2	1697	125.797783779928	142
2	1697	125.797783779928	143
2	1715	128.920097961637	144
2	1715	128.920097961637	145
2	1741	130.720261357437	146
2	1741	130.720261357437	147
2	1761	132.41223912432	148
2	1761	132.41223912432	149
2	1784	133.94183755591	150
2	1784	133.94183755591	151
2	1805	135.37642374968	152
2	1805	135.37642374968	153
2	1828	136.891209728572	154
2	1828	136.891209728572	155
2	1853	138.538968074285	156
2	1853	138.538968074285	157
2	1874	140.3428177672	158
2	1874	140.3428177672	159
2	1899	141.634333521416	160
2	1899	141.634333521416	161
2	1926	146.43173448384	162
2	1926	146.43173448384	163
2	1952	148.353165325637	164
2	1952	148.353165325637	165
2	1971	150.229051372113	166
2	1971	150.229051372113	167
2	1994	151.589179119416	168
2	1994	151.589179119416	169
2	2029	152.971191490885	170
2	2029	152.971191490885	171
2	2052	154.526477530945	172
2	2052	154.526477530945	173
2	2068	156.185511286833	174
2	2068	156.185511286833	175
2	2087	157.658364808535	176
2	2087	157.658364808535	177
2	2114	158.773511406858	178
2	2114	158.773511406858	179
2	2131	160.562617699274	180
2	2131	160.562617699274	181
2	2154	161.702264461893	182
2	2154	161.702264461893	183
2	2178	162.981607695009	184
2	2178	162.981607695009	185
2	2200	164.042983914997	186
2	2200	164.042983914997	187
2	2229	166.016631029521	188
2	2229	166.016631029521	189
2	2246	167.303054595955	190
2	2246	167.303054595955	191
2	2271	169.028485277413	192
2	2271	169.028485277413	193
2	2302	170.646639947975	194
2	2302	170.646639947975	195
2	2315	172.440737131853	196
2	2315	172.440737131853	197
2	2338	173.731789367315	198
2	2338	173.731789367315	199
2	2370	175.130562159163	200
2	2370	175.130562159163	201
2	2386	177.099091496742	202
2	2386	177.099091496742	203
2	2418	179.825309603195	204
2	2418	179.825309603195	205
2	2445	181.003501530471	206
2	2445	181.003501530471	207
2	2456	182.267057133647	208
2	2456	182.267057133647	209
2	2479	184.221743379713	210
2	2479	184.221743379713	211
2	2502	186.184637497898	212
2	2502	186.184637497898	213
2	2524	187.706896214946	214
2	2524	187.706896214946	215
2	2557	189.233248052911	216
2	2557	189.233248052911	217
2	2582	192.05237107559	218
2	2582	192.05237107559	219
2	2595	193.153229138942	220
2	2595	193.153229138942	221
2	2628	194.736422317467	222
2	2628	194.736422317467	223
2	2641	196.323683925549	224
2	2641	196.323683925549	225
2	2665	197.833194172039	226
2	2665	197.833194172039	227
2	2688	199.546389020584	228
2	2688	199.546389020584	229
2	2712	203.324789650937	230
2	2712	203.324789650937	231
2	2737	206.656342455366	232
2	2737	206.656342455366	233
2	2762	207.716614955817	234
2	2762	207.716614955817	235
2	2783	209.706869053988	236
2	2783	209.706869053988	237
2	2806	211.653920316835	238
2	2806	211.653920316835	239
2	2833	213.606879729638	240
2	2833	213.606879729638	241
2	2853	215.182481832446	242
2	2853	215.182481832446	243
2	2877	218.222854466144	244
2	2877	218.222854466144	245
2	2902	220.081804028676	246
2	2902	220.081804028676	247
2	2925	221.412010833177	248
2	2925	221.412010833177	249
2	2946	222.470565486854	250
2	2946	222.470565486854	251
2	2970	223.90397429209	252
2	2970	223.90397429209	253
2	2994	226.601482753389	254
2	2994	226.601482753389	255
2	3019	228.038906007287	256
2	3019	228.038906007287	257
2	3044	229.098487596504	258
2	3044	229.098487596504	259
2	3073	231.026528545973	260
2	3073	231.026528545973	261
2	3092	232.138926001252	262
2	3092	232.138926001252	263
2	3110	233.212553245016	264
2	3110	233.212553245016	265
2	3132	235.006347336238	266
2	3132	235.006347336238	267
2	3156	236.927695329308	268
2	3156	236.927695329308	269
2	3180	238.122631801839	270
2	3180	238.122631801839	271
3	9	0.227595799025	0
3	9	0.227595799025	1
3	9	0.227595799025	2
3	36	2.172051409777	3
3	36	2.172051409777	4
3	36	2.172051409777	5
3	54	3.985106817757	6
3	54	3.985106817757	7
3	54	3.985106817757	8
3	77	5.433889470453	9
3	77	5.433889470453	10
3	77	5.433889470453	11
3	105	6.990925812318	12
3	105	6.990925812318	13
3	105	6.990925812318	14
3	131	8.356554692875	15
3	131	8.356554692875	16
3	131	8.356554692875	17
3	147	10.169560801318	18
3	147	10.169560801318	19
3	147	10.169560801318	20
3	169	11.265956017648	21
3	169	11.265956017648	22
3	169	11.265956017648	23
3	194	12.371224194432	24
3	194	12.371224194432	25
3	194	12.371224194432	26
3	219	16.284529475663	27
3	219	16.284529475663	28
3	219	16.284529475663	29
3	240	17.922476357132	30
3	240	17.922476357132	31
3	240	17.922476357132	32
3	263	19.828702587139	33
3	263	19.828702587139	34
3	263	19.828702587139	35
3	295	20.876137240255	36
3	295	20.876137240255	37
3	295	20.876137240255	38
3	314	22.373717494837	39
3	314	22.373717494837	40
3	314	22.373717494837	41
3	336	23.519691336688	42
3	336	23.519691336688	43
3	336	23.519691336688	44
3	357	26.702341525851	45
3	357	26.702341525851	46
3	357	26.702341525851	47
3	384	27.873910598403	48
3	384	27.873910598403	49
3	384	27.873910598403	50
3	408	29.244771731803	51
3	408	29.244771731803	52
3	408	29.244771731803	53
3	426	31.094928470878	54
3	426	31.094928470878	55
3	426	31.094928470878	56
3	450	32.841154211878	57
3	450	32.841154211878	58
3	450	32.841154211878	59
3	480	34.594763977712	60
3	480	34.594763977712	61
3	480	34.594763977712	62
3	495	36.399091545448	63
3	495	36.399091545448	64
3	495	36.399091545448	65
3	519	37.490048338254	66
3	519	37.490048338254	67
3	519	37.490048338254	68
3	550	39.321698783576	69
3	550	39.321698783576	70
3	550	39.321698783576	71
3	576	40.535869509407	72
3	576	40.535869509407	73
3	576	40.535869509407	74
3	589	43.654986922344	75
3	589	43.654986922344	76
3	589	43.654986922344	77
3	613	44.976224495071	78
3	613	44.976224495071	79
3	613	44.976224495071	80
3	644	46.245936953641	81
3	644	46.245936953641	82
3	644	46.245936953641	83
3	663	47.260601703785	84
3	663	47.260601703785	85
3	663	47.260601703785	86
3	689	48.933705701825	87
3	689	48.933705701825	88
3	689	48.933705701825	89
3	706	52.32906622908	90
3	706	52.32906622908	91
3	706	52.32906622908	92
3	731	54.301878736125	93
3	731	54.301878736125	94
3	731	54.301878736125	95
3	753	56.162055192136	96
3	753	56.162055192136	97
3	753	56.162055192136	98
3	775	57.537036220644	99
3	775	57.537036220644	100
3	775	57.537036220644	101
3	799	58.836109140484	102
3	799	58.836109140484	103
3	799	58.836109140484	104
3	829	60.123212825454	105
3	829	60.123212825454	106
3	829	60.123212825454	107
3	852	61.646417115522	108
3	852	61.646417115522	109
3	852	61.646417115522	110
3	872	65.842217200403	111
3	872	65.842217200403	112
3	872	65.842217200403	113
3	895	67.801244485047	114
3	895	67.801244485047	115
3	895	67.801244485047	116
3	917	69.036864268682	117
3	917	69.036864268682	118
3	917	69.036864268682	119
3	940	70.321793770689	120
3	940	70.321793770689	121
3	940	70.321793770689	122
3	964	72.150132155909	123
3	964	72.150132155909	124
3	964	72.150132155909	125
3	989	73.613150615809	126
3	989	73.613150615809	127
3	989	73.613150615809	128
3	1009	75.192026336193	129
3	1009	75.192026336193	130
3	1009	75.192026336193	131
3	1034	78.681776403464	132
3	1034	78.681776403464	133
3	1034	78.681776403464	134
3	1058	80.59602491545	135
3	1058	80.59602491545	136
3	1058	80.59602491545	137
3	1089	81.92957715617	138
3	1089	81.92957715617	139
3	1089	81.92957715617	140
3	1102	83.686540187796	141
3	1102	83.686540187796	142
3	1102	83.686540187796	143
3	1124	85.288910687584	144
3	1124	85.288910687584	145
3	1124	85.288910687584	146
3	1147	86.372668135271	147
3	1147	86.372668135271	148
3	1147	86.372668135271	149
3	1180	91.296971607831	150
3	1180	91.296971607831	151
3	1180	91.296971607831	152
3	1201	92.731634737815	153
3	1201	92.731634737815	154
3	1201	92.731634737815	155
3	1236	93.852527551779	156
3	1236	93.852527551779	157
3	1236	93.852527551779	158
3	1251	97.676092438004	159
3	1251	97.676092438004	160
3	1251	97.676092438004	161
3	1275	99.223944265996	162
3	1275	99.223944265996	163
3	1275	99.223944265996	164
3	1305	100.384806397485	165
3	1305	100.384806397485	166
3	1305	100.384806397485	167
3	1321	101.493779330559	168
3	1321	101.493779330559	169
3	1321	101.493779330559	170
3	1346	103.147412721307	171
3	1346	103.147412721307	172
3	1346	103.147412721307	173
3	1375	104.736127975429	174
3	1375	104.736127975429	175
3	1375	104.736127975429	176
3	1389	106.437978414928	177
3	1389	106.437978414928	178
3	1389	106.437978414928	179
3	1412	108.05950348571	180
3	1412	108.05950348571	181
3	1412	108.05950348571	182
3	1439	109.086409132568	183
3	1439	109.086409132568	184
3	1439	109.086409132568	185
3	1459	110.824259211457	186
3	1459	110.824259211457	187
3	1459	110.824259211457	188
3	1484	112.354390762485	189
3	1484	112.354390762485	190
3	1484	112.354390762485	191
3	1505	113.696767268733	192
3	1505	113.696767268733	193
3	1505	113.696767268733	194
3	1527	115.662697902155	195
3	1527	115.662697902155	196
3	1527	115.662697902155	197
3	1550	117.183565951043	198
3	1550	117.183565951043	199
3	1550	117.183565951043	200
3	1574	118.488574120385	201
3	1574	118.488574120385	202
3	1574	118.488574120385	203
3	1596	120.364532616722	204
3	1596	120.364532616722	205
3	1596	120.364532616722	206
3	1619	121.582814076221	207
3	1619	121.582814076221	208
3	1619	121.582814076221	209
3	1648	123.364050471676	210
3	1648	123.364050471676	211
3	1648	123.364050471676	212
3	1673	124.573272871095	213
3	1673	124.573272871095	214
3	1673	124.573272871095	215
3	1688	125.783563243042	216
3	1688	125.783563243042	217
3	1688	125.783563243042	218
3	1713	128.910617329333	219
3	1713	128.910617329333	220
3	1713	128.910617329333	221
3	1742	130.722219376152	222
3	1742	130.722219376152	223
3	1742	130.722219376152	224
3	1759	132.405926981902	225
3	1759	132.405926981902	226
3	1759	132.405926981902	227
3	1782	133.934293300631	228
3	1782	133.934293300631	229
3	1782	133.934293300631	230
3	1807	135.383883745894	231
3	1807	135.383883745894	232
3	1807	135.383883745894	233
3	1831	136.905002875913	234
3	1831	136.905002875913	235
3	1831	136.905002875913	236
3	1851	138.53547037242	237
3	1851	138.53547037242	238
3	1851	138.53547037242	239
3	1875	140.345191890833	240
3	1875	140.345191890833	241
3	1875	140.345191890833	242
3	1898	141.631350764898	243
3	1898	141.631350764898	244
3	1898	141.631350764898	245
3	1924	146.42669822288	246
3	1924	146.42669822288	247
3	1924	146.42669822288	248
3	1959	148.394248514789	249
3	1959	148.394248514789	250
3	1959	148.394248514789	251
3	1979	150.241046713006	252
3	1979	150.241046713006	253
3	1979	150.241046713006	254
3	1993	151.587242154047	255
3	1993	151.587242154047	256
3	1993	151.587242154047	257
3	2016	152.940059744211	258
3	2016	152.940059744211	259
3	2016	152.940059744211	260
3	2045	154.511493678157	261
3	2045	154.511493678157	262
3	2045	154.511493678157	263
3	2063	156.179391991348	264
3	2063	156.179391991348	265
3	2063	156.179391991348	266
3	2086	157.65623252167	267
3	2086	157.65623252167	268
3	2086	157.65623252167	269
3	2109	158.766144997547	270
3	2109	158.766144997547	271
3	2109	158.766144997547	272
3	2134	160.581550344648	273
3	2134	160.581550344648	274
3	2134	160.581550344648	275
3	2162	161.727244736138	276
3	2162	161.727244736138	277
3	2162	161.727244736138	278
3	2177	162.971911089225	279
3	2177	162.971911089225	280
3	2177	162.971911089225	281
3	2201	164.050829135786	282
3	2201	164.050829135786	283
3	2201	164.050829135786	284
3	2224	166.006646070022	285
3	2224	166.006646070022	286
3	2224	166.006646070022	287
3	2247	167.304183189135	288
3	2247	167.304183189135	289
3	2247	167.304183189135	290
3	2270	169.026586980565	291
3	2270	169.026586980565	292
3	2270	169.026586980565	293
3	2292	170.611326286351	294
3	2292	170.611326286351	295
3	2292	170.611326286351	296
3	2316	172.442398547999	297
3	2316	172.442398547999	298
3	2316	172.442398547999	299
3	2347	173.768619948077	300
3	2347	173.768619948077	301
3	2347	173.768619948077	302
3	2361	175.104171718924	303
3	2361	175.104171718924	304
3	2361	175.104171718924	305
3	2384	177.093660032018	306
3	2384	177.093660032018	307
3	2384	177.093660032018	308
3	2410	179.805314568757	309
3	2410	179.805314568757	310
3	2410	179.805314568757	311
3	2433	180.973672999537	312
3	2433	180.973672999537	313
3	2433	180.973672999537	314
3	2455	182.266123424766	315
3	2455	182.266123424766	316
3	2455	182.266123424766	317
3	2478	184.220893019446	318
3	2478	184.220893019446	319
3	2478	184.220893019446	320
3	2507	186.192353112663	321
3	2507	186.192353112663	322
3	2507	186.192353112663	323
3	2528	187.724481202687	324
3	2528	187.724481202687	325
3	2528	187.724481202687	326
3	2548	189.215101356267	327
3	2548	189.215101356267	328
3	2548	189.215101356267	329
3	2572	192.03612434677	330
3	2572	192.03612434677	331
3	2572	192.03612434677	332
3	2596	193.155736570398	333
3	2596	193.155736570398	334
3	2596	193.155736570398	335
3	2619	194.715266314689	336
3	2619	194.715266314689	337
3	2619	194.715266314689	338
3	2645	196.344131010991	339
3	2645	196.344131010991	340
3	2645	196.344131010991	341
3	2664	197.832312271845	342
3	2664	197.832312271845	343
3	2664	197.832312271845	344
3	2695	199.557455372134	345
3	2695	199.557455372134	346
3	2695	199.557455372134	347
3	2713	203.333687105576	348
3	2713	203.333687105576	349
3	2713	203.333687105576	350
3	2739	206.662146647318	351
3	2739	206.662146647318	352
3	2739	206.662146647318	353
3	2761	207.711692699381	354
3	2761	207.711692699381	355
3	2761	207.711692699381	356
3	2785	209.713788572525	357
3	2785	209.713788572525	358
3	2785	209.713788572525	359
3	2814	211.672517007111	360
3	2814	211.672517007111	361
3	2814	211.672517007111	362
3	2829	213.596771101827	363
3	2829	213.596771101827	364
3	2829	213.596771101827	365
3	2852	215.180137272436	366
3	2852	215.180137272436	367
3	2852	215.180137272436	368
3	2878	218.231730664853	369
3	2878	218.231730664853	370
3	2878	218.231730664853	371
3	2901	220.080522317326	372
3	2901	220.080522317326	373
3	2901	220.080522317326	374
3	2924	221.411725115822	375
3	2924	221.411725115822	376
3	2924	221.411725115822	377
3	2954	222.485652604689	378
3	2954	222.485652604689	379
3	2954	222.485652604689	380
3	2969	223.899759742971	381
3	2969	223.899759742971	382
3	2969	223.899759742971	383
3	2995	226.611478716847	384
3	2995	226.611478716847	385
3	2995	226.611478716847	386
3	3017	228.030818914816	387
3	3017	228.030818914816	388
3	3017	228.030818914816	389
3	3040	229.085871157174	390
3	3040	229.085871157174	391
3	3040	229.085871157174	392
3	3064	231.010214177718	393
3	3064	231.010214177718	394
3	3064	231.010214177718	395
3	3087	232.129729717808	396
3	3087	232.129729717808	397
3	3087	232.129729717808	398
3	3118	233.236866881673	399
3	3118	233.236866881673	400
3	3118	233.236866881673	401
3	3134	235.008728317391	402
3	3134	235.008728317391	403
3	3134	235.008728317391	404
3	3167	236.958227677894	405
3	3167	236.958227677894	406
3	3167	236.958227677894	407
3	3179	238.122432575393	408
3	3179	238.122432575393	409
3	3179	238.122432575393	410
4	12	0.228177698444	0
4	12	0.228177698444	1
4	12	0.228177698444	2
4	12	0.228177698444	3
4	31	2.160313014715	4
4	31	2.160313014715	5
4	31	2.160313014715	6
4	31	2.160313014715	7
4	58	4.00035680459	8
4	58	4.00035680459	9
4	58	4.00035680459	10
4	58	4.00035680459	11
4	78	5.434931099658	12
4	78	5.434931099658	13
4	78	5.434931099658	14
4	78	5.434931099658	15
4	100	6.979576984571	16
4	100	6.979576984571	17
4	100	6.979576984571	18
4	100	6.979576984571	19
4	123	8.337466792136	20
4	123	8.337466792136	21
4	123	8.337466792136	22
4	123	8.337466792136	23
4	146	10.167538987357	24
4	146	10.167538987357	25
4	146	10.167538987357	26
4	146	10.167538987357	27
4	175	11.291078431812	28
4	175	11.291078431812	29
4	175	11.291078431812	30
4	175	11.291078431812	31
4	192	12.366921020091	32
4	192	12.366921020091	33
4	192	12.366921020091	34
4	192	12.366921020091	35
4	218	16.277750814767	36
4	218	16.277750814767	37
4	218	16.277750814767	38
4	218	16.277750814767	39
4	251	17.945970230761	40
4	251	17.945970230761	41
4	251	17.945970230761	42
4	251	17.945970230761	43
4	270	19.844393180309	44
4	270	19.844393180309	45
4	270	19.844393180309	46
4	270	19.844393180309	47
4	286	20.854497981323	48
4	286	20.854497981323	49
4	286	20.854497981323	50
4	286	20.854497981323	51
4	309	22.359563455173	52
4	309	22.359563455173	53
4	309	22.359563455173	54
4	309	22.359563455173	55
4	333	23.510313932	56
4	333	23.510313932	57
4	333	23.510313932	58
4	333	23.510313932	59
4	365	26.723685392515	60
4	365	26.723685392515	61
4	365	26.723685392515	62
4	365	26.723685392515	63
4	381	27.869753255141	64
4	381	27.869753255141	65
4	381	27.869753255141	66
4	381	27.869753255141	67
4	403	29.231619616502	68
4	403	29.231619616502	69
4	403	29.231619616502	70
4	403	29.231619616502	71
4	431	31.11990694959	72
4	431	31.11990694959	73
4	431	31.11990694959	74
4	431	31.11990694959	75
4	449	32.836483889846	76
4	449	32.836483889846	77
4	449	32.836483889846	78
4	449	32.836483889846	79
4	472	34.566518421352	80
4	472	34.566518421352	81
4	472	34.566518421352	82
4	472	34.566518421352	83
4	497	36.406099999202	84
4	497	36.406099999202	85
4	497	36.406099999202	86
4	497	36.406099999202	87
4	520	37.490938365279	88
4	520	37.490938365279	89
4	520	37.490938365279	90
4	520	37.490938365279	91
4	544	39.30308635086	92
4	544	39.30308635086	93
4	544	39.30308635086	94
4	544	39.30308635086	95
4	564	40.488988728628	96
4	564	40.488988728628	97
4	564	40.488988728628	98
4	564	40.488988728628	99
4	590	43.655684222014	100
4	590	43.655684222014	101
4	590	43.655684222014	102
4	590	43.655684222014	103
4	612	44.974301320568	104
4	612	44.974301320568	105
4	612	44.974301320568	106
4	612	44.974301320568	107
4	636	46.228339199619	108
4	636	46.228339199619	109
4	636	46.228339199619	110
4	636	46.228339199619	111
4	658	47.243440967169	112
4	658	47.243440967169	113
4	658	47.243440967169	114
4	658	47.243440967169	115
4	682	48.91571734816	116
4	682	48.91571734816	117
4	682	48.91571734816	118
4	682	48.91571734816	119
4	707	52.334290675101	120
4	707	52.334290675101	121
4	707	52.334290675101	122
4	707	52.334290675101	123
4	730	54.298268471341	124
4	730	54.298268471341	125
4	730	54.298268471341	126
4	730	54.298268471341	127
4	759	56.181581380792	128
4	759	56.181581380792	129
4	759	56.181581380792	130
4	759	56.181581380792	131
4	783	57.552427325172	132
4	783	57.552427325172	133
4	783	57.552427325172	134
4	783	57.552427325172	135
4	805	58.86026584565	136
4	805	58.86026584565	137
4	805	58.86026584565	138
4	805	58.86026584565	139
4	822	60.107024910514	140
4	822	60.107024910514	141
4	822	60.107024910514	142
4	822	60.107024910514	143
4	845	61.627128321221	144
4	845	61.627128321221	145
4	845	61.627128321221	146
4	845	61.627128321221	147
4	878	65.859631155624	148
4	878	65.859631155624	149
4	878	65.859631155624	150
4	878	65.859631155624	151
4	894	67.799777186466	152
4	894	67.799777186466	153
4	894	67.799777186466	154
4	894	67.799777186466	155
4	921	69.04854444776	156
4	921	69.04854444776	157
4	921	69.04854444776	158
4	921	69.04854444776	159
4	942	70.326109912904	160
4	942	70.326109912904	161
4	942	70.326109912904	162
4	942	70.326109912904	163
4	965	72.152845661287	164
4	965	72.152845661287	165
4	965	72.152845661287	166
4	965	72.152845661287	167
4	990	73.620016869382	168
4	990	73.620016869382	169
4	990	73.620016869382	170
4	990	73.620016869382	171
4	1011	75.198926586106	172
4	1011	75.198926586106	173
4	1011	75.198926586106	174
4	1011	75.198926586106	175
4	1035	78.681799343058	176
4	1035	78.681799343058	177
4	1035	78.681799343058	178
4	1035	78.681799343058	179
4	1057	80.588915686099	180
4	1057	80.588915686099	181
4	1057	80.588915686099	182
4	1057	80.588915686099	183
4	1080	81.84597349733	184
4	1080	81.84597349733	185
4	1080	81.84597349733	186
4	1080	81.84597349733	187
4	1100	83.682516810056	188
4	1100	83.682516810056	189
4	1100	83.682516810056	190
4	1100	83.682516810056	191
4	1134	85.320551690559	192
4	1134	85.320551690559	193
4	1134	85.320551690559	194
4	1134	85.320551690559	195
4	1157	86.408003588026	196
4	1157	86.408003588026	197
4	1157	86.408003588026	198
4	1157	86.408003588026	199
4	1179	91.292283467026	200
4	1179	91.292283467026	201
4	1179	91.292283467026	202
4	1179	91.292283467026	203
4	1202	92.738061843824	204
4	1202	92.738061843824	205
4	1202	92.738061843824	206
4	1202	92.738061843824	207
4	1224	93.825787110299	208
4	1224	93.825787110299	209
4	1224	93.825787110299	210
4	1224	93.825787110299	211
4	1259	97.696686078006	212
4	1259	97.696686078006	213
4	1259	97.696686078006	214
4	1259	97.696686078006	215
4	1274	99.222750394301	216
4	1274	99.222750394301	217
4	1274	99.222750394301	218
4	1274	99.222750394301	219
4	1298	100.37400236774	220
4	1298	100.37400236774	221
4	1298	100.37400236774	222
4	1298	100.37400236774	223
4	1320	101.491710477611	224
4	1320	101.491710477611	225
4	1320	101.491710477611	226
4	1320	101.491710477611	227
4	1347	103.15273370067	228
4	1347	103.15273370067	229
4	1347	103.15273370067	230
4	1347	103.15273370067	231
4	1366	104.717895602998	232
4	1366	104.717895602998	233
4	1366	104.717895602998	234
4	1366	104.717895602998	235
4	1390	106.440238999952	236
4	1390	106.440238999952	237
4	1390	106.440238999952	238
4	1390	106.440238999952	239
4	1413	108.06020505329	240
4	1413	108.06020505329	241
4	1413	108.06020505329	242
4	1413	108.06020505329	243
4	1438	109.082109561784	244
4	1438	109.082109561784	245
4	1438	109.082109561784	246
4	1438	109.082109561784	247
4	1458	110.817639568858	248
4	1458	110.817639568858	249
4	1458	110.817639568858	250
4	1458	110.817639568858	251
4	1492	112.39301152678	252
4	1492	112.39301152678	253
4	1492	112.39301152678	254
4	1492	112.39301152678	255
4	1506	113.699496895756	256
4	1506	113.699496895756	257
4	1506	113.699496895756	258
4	1506	113.699496895756	259
4	1535	115.713501768094	260
4	1535	115.713501768094	261
4	1535	115.713501768094	262
4	1535	115.713501768094	263
4	1552	117.190077640139	264
4	1552	117.190077640139	265
4	1552	117.190077640139	266
4	1552	117.190077640139	267
4	1573	118.479124665045	268
4	1573	118.479124665045	269
4	1573	118.479124665045	270
4	1573	118.479124665045	271
4	1607	120.388098823677	272
4	1607	120.388098823677	273
4	1607	120.388098823677	274
4	1607	120.388098823677	275
4	1627	121.598023621989	276
4	1627	121.598023621989	277
4	1627	121.598023621989	278
4	1627	121.598023621989	279
4	1642	123.350972408868	280
4	1642	123.350972408868	281
4	1642	123.350972408868	282
4	1642	123.350972408868	283
4	1666	124.545625297914	284
4	1666	124.545625297914	285
4	1666	124.545625297914	286
4	1666	124.545625297914	287
4	1689	125.786843478873	288
4	1689	125.786843478873	289
4	1689	125.786843478873	290
4	1689	125.786843478873	291
4	1714	128.916942013235	292
4	1714	128.916942013235	293
4	1714	128.916942013235	294
4	1714	128.916942013235	295
4	1736	130.703430076094	296
4	1736	130.703430076094	297
4	1736	130.703430076094	298
4	1736	130.703430076094	299
4	1760	132.411054461368	300
4	1760	132.411054461368	301
4	1760	132.411054461368	302
4	1760	132.411054461368	303
4	1783	133.93922434552	304
4	1783	133.93922434552	305
4	1783	133.93922434552	306
4	1783	133.93922434552	307
4	1806	135.380633091979	308
4	1806	135.380633091979	309
4	1806	135.380633091979	310
4	1806	135.380633091979	311
4	1835	136.916119694403	312
4	1835	136.916119694403	313
4	1835	136.916119694403	314
4	1835	136.916119694403	315
4	1852	138.538160737719	316
4	1852	138.538160737719	317
4	1852	138.538160737719	318
4	1852	138.538160737719	319
4	1882	140.362626121173	320
4	1882	140.362626121173	321
4	1882	140.362626121173	322
4	1882	140.362626121173	323
4	1897	141.625825067962	324
4	1897	141.625825067962	325
4	1897	141.625825067962	326
4	1897	141.625825067962	327
4	1925	146.42811727416	328
4	1925	146.42811727416	329
4	1925	146.42811727416	330
4	1925	146.42811727416	331
4	1947	148.34254805515	332
4	1947	148.34254805515	333
4	1947	148.34254805515	334
4	1947	148.34254805515	335
4	1970	150.224401327913	336
4	1970	150.224401327913	337
4	1970	150.224401327913	338
4	1970	150.224401327913	339
4	2000	151.599547263317	340
4	2000	151.599547263317	341
4	2000	151.599547263317	342
4	2000	151.599547263317	343
4	2020	152.956290789356	344
4	2020	152.956290789356	345
4	2020	152.956290789356	346
4	2020	152.956290789356	347
4	2039	154.501378826225	348
4	2039	154.501378826225	349
4	2039	154.501378826225	350
4	2039	154.501378826225	351
4	2062	156.174128256242	352
4	2062	156.174128256242	353
4	2062	156.174128256242	354
4	2062	156.174128256242	355
4	2085	157.649142655161	356
4	2085	157.649142655161	357
4	2085	157.649142655161	358
4	2085	157.649142655161	359
4	2108	158.761586174149	360
4	2108	158.761586174149	361
4	2108	158.761586174149	362
4	2108	158.761586174149	363
4	2138	160.596282228801	364
4	2138	160.596282228801	365
4	2138	160.596282228801	366
4	2138	160.596282228801	367
4	2155	161.708108640711	368
4	2155	161.708108640711	369
4	2155	161.708108640711	370
4	2155	161.708108640711	371
4	2188	163.054583579651	372
4	2188	163.054583579651	373
4	2188	163.054583579651	374
4	2188	163.054583579651	375
4	2207	164.072638264474	376
4	2207	164.072638264474	377
4	2207	164.072638264474	378
4	2207	164.072638264474	379
4	2223	166.005509221599	380
4	2223	166.005509221599	381
4	2223	166.005509221599	382
4	2223	166.005509221599	383
4	2253	167.321302410948	384
4	2253	167.321302410948	385
4	2253	167.321302410948	386
4	2253	167.321302410948	387
4	2269	169.022497495851	388
4	2269	169.022497495851	389
4	2269	169.022497495851	390
4	2269	169.022497495851	391
4	2296	170.632377288764	392
4	2296	170.632377288764	393
4	2296	170.632377288764	394
4	2296	170.632377288764	395
4	2317	172.443832824102	396
4	2317	172.443832824102	397
4	2317	172.443832824102	398
4	2317	172.443832824102	399
4	2341	173.749798808618	400
4	2341	173.749798808618	401
4	2341	173.749798808618	402
4	2341	173.749798808618	403
4	2365	175.119882563963	404
4	2365	175.119882563963	405
4	2365	175.119882563963	406
4	2365	175.119882563963	407
4	2385	177.098768697248	408
4	2385	177.098768697248	409
4	2385	177.098768697248	410
4	2385	177.098768697248	411
4	2409	179.797281016514	412
4	2409	179.797281016514	413
4	2409	179.797281016514	414
4	2409	179.797281016514	415
4	2432	180.973111994848	416
4	2432	180.973111994848	417
4	2432	180.973111994848	418
4	2432	180.973111994848	419
4	2457	182.273177363782	420
4	2457	182.273177363782	421
4	2457	182.273177363782	422
4	2457	182.273177363782	423
4	2480	184.224160299306	424
4	2480	184.224160299306	425
4	2480	184.224160299306	426
4	2480	184.224160299306	427
4	2501	186.177446900661	428
4	2501	186.177446900661	429
4	2501	186.177446900661	430
4	2501	186.177446900661	431
4	2527	187.717254863891	432
4	2527	187.717254863891	433
4	2527	187.717254863891	434
4	2527	187.717254863891	435
4	2547	189.212226714861	436
4	2547	189.212226714861	437
4	2547	189.212226714861	438
4	2547	189.212226714861	439
4	2573	192.037657283691	440
4	2573	192.037657283691	441
4	2573	192.037657283691	442
4	2573	192.037657283691	443
4	2602	193.167184176061	444
4	2602	193.167184176061	445
4	2602	193.167184176061	446
4	2602	193.167184176061	447
4	2618	194.710895862683	448
4	2618	194.710895862683	449
4	2618	194.710895862683	450
4	2618	194.710895862683	451
4	2644	196.340859174909	452
4	2644	196.340859174909	453
4	2644	196.340859174909	454
4	2644	196.340859174909	455
4	2671	197.851892425055	456
4	2671	197.851892425055	457
4	2671	197.851892425055	458
4	2671	197.851892425055	459
4	2687	199.543793975527	460
4	2687	199.543793975527	461
4	2687	199.543793975527	462
4	2687	199.543793975527	463
4	2716	203.337539527625	464
4	2716	203.337539527625	465
4	2716	203.337539527625	466
4	2716	203.337539527625	467
4	2738	206.659736628092	468
4	2738	206.659736628092	469
4	2738	206.659736628092	470
4	2738	206.659736628092	471
4	2760	207.709361155693	472
4	2760	207.709361155693	473
4	2760	207.709361155693	474
4	2760	207.709361155693	475
4	2784	209.711017197964	476
4	2784	209.711017197964	477
4	2784	209.711017197964	478
4	2784	209.711017197964	479
4	2807	211.661046977078	480
4	2807	211.661046977078	481
4	2807	211.661046977078	482
4	2807	211.661046977078	483
4	2834	213.608315622376	484
4	2834	213.608315622376	485
4	2834	213.608315622376	486
4	2834	213.608315622376	487
4	2860	215.200447658386	488
4	2860	215.200447658386	489
4	2860	215.200447658386	490
4	2860	215.200447658386	491
4	2884	218.247083600442	492
4	2884	218.247083600442	493
4	2884	218.247083600442	494
4	2884	218.247083600442	495
4	2900	220.07438690043	496
4	2900	220.07438690043	497
4	2900	220.07438690043	498
4	2900	220.07438690043	499
4	2923	221.408418984447	500
4	2923	221.408418984447	501
4	2923	221.408418984447	502
4	2923	221.408418984447	503
4	2947	222.473687690894	504
4	2947	222.473687690894	505
4	2947	222.473687690894	506
4	2947	222.473687690894	507
4	2977	223.914906913125	508
4	2977	223.914906913125	509
4	2977	223.914906913125	510
4	2977	223.914906913125	511
4	3002	226.624773041601	512
4	3002	226.624773041601	513
4	3002	226.624773041601	514
4	3002	226.624773041601	515
4	3018	228.038751058504	516
4	3018	228.038751058504	517
4	3018	228.038751058504	518
4	3018	228.038751058504	519
4	3045	229.106225876241	520
4	3045	229.106225876241	521
4	3045	229.106225876241	522
4	3045	229.106225876241	523
4	3063	231.004732695459	524
4	3063	231.004732695459	525
4	3063	231.004732695459	526
4	3063	231.004732695459	527
4	3086	232.121575653234	528
4	3086	232.121575653234	529
4	3086	232.121575653234	530
4	3086	232.121575653234	531
4	3109	233.211317749476	532
4	3109	233.211317749476	533
4	3109	233.211317749476	534
4	3109	233.211317749476	535
4	3133	235.006980250199	536
4	3133	235.006980250199	537
4	3133	235.006980250199	538
4	3133	235.006980250199	539
4	3155	236.91931491757	540
4	3155	236.91931491757	541
4	3155	236.91931491757	542
4	3155	236.91931491757	543
4	3178	238.12010088369	544
4	3178	238.12010088369	545
4	3178	238.12010088369	546
4	3178	238.12010088369	547
5	20	0.240512463835	0
5	20	0.240512463835	1
5	20	0.240512463835	2
5	41	2.182243490178	3
5	41	2.182243490178	4
5	41	2.182243490178	5
5	59	4.002612649186	6
5	59	4.002612649186	7
5	59	4.002612649186	8
5	89	5.446413038289	9
5	89	5.446413038289	10
5	89	5.446413038289	11
5	110	7.006232038679	12
5	110	7.006232038679	13
5	110	7.006232038679	14
5	132	8.360688394288	15
5	132	8.360688394288	16
5	132	8.360688394288	17
5	152	10.178922265066	18
5	152	10.178922265066	19
5	152	10.178922265066	20
5	174	11.287656373715	21
5	174	11.287656373715	22
5	174	11.287656373715	23
5	204	12.3826616263	24
5	204	12.3826616263	25
5	204	12.3826616263	26
5	226	16.289322761668	27
5	226	16.289322761668	28
5	226	16.289322761668	29
5	245	17.935088665902	30
5	245	17.935088665902	31
5	245	17.935088665902	32
5	271	19.845088572241	33
5	271	19.845088572241	34
5	271	19.845088572241	35
5	292	20.866494263952	36
5	292	20.866494263952	37
5	292	20.866494263952	38
5	316	22.38121807061	39
5	316	22.38121807061	40
5	316	22.38121807061	41
5	341	23.528457639926	42
5	341	23.528457639926	43
5	341	23.528457639926	44
5	364	26.715431227511	45
5	364	26.715431227511	46
5	364	26.715431227511	47
5	392	27.884995442077	48
5	392	27.884995442077	49
5	392	27.884995442077	50
5	409	29.246615946908	51
5	409	29.246615946908	52
5	409	29.246615946908	53
5	430	31.112887030197	54
5	430	31.112887030197	55
5	430	31.112887030197	56
5	459	32.851411296825	57
5	459	32.851411296825	58
5	459	32.851411296825	59
5	484	34.614873674213	60
5	484	34.614873674213	61
5	484	34.614873674213	62
5	507	36.419096167065	63
5	507	36.419096167065	64
5	507	36.419096167065	65
5	526	37.500263944345	66
5	526	37.500263944345	67
5	526	37.500263944345	68
5	549	39.317611561438	69
5	549	39.317611561438	70
5	549	39.317611561438	71
5	572	40.51770928918	72
5	572	40.51770928918	73
5	572	40.51770928918	74
5	601	43.671765881638	75
5	601	43.671765881638	76
5	601	43.671765881638	77
5	624	45.000206715779	78
5	624	45.000206715779	79
5	624	45.000206715779	80
5	643	46.239088239337	81
5	643	46.239088239337	82
5	643	46.239088239337	83
5	670	47.271238920139	84
5	670	47.271238920139	85
5	670	47.271238920139	86
5	693	48.956742939571	87
5	693	48.956742939571	88
5	693	48.956742939571	89
5	718	52.379528558008	90
5	718	52.379528558008	91
5	718	52.379528558008	92
5	741	54.311934933605	93
5	741	54.311934933605	94
5	741	54.311934933605	95
5	764	56.192642486035	96
5	764	56.192642486035	97
5	764	56.192642486035	98
5	780	57.547602739035	99
5	780	57.547602739035	100
5	780	57.547602739035	101
5	810	58.87872556281	102
5	810	58.87872556281	103
5	810	58.87872556281	104
5	833	60.139066421121	105
5	833	60.139066421121	106
5	833	60.139066421121	107
5	856	61.6708842059	108
5	856	61.6708842059	109
5	856	61.6708842059	110
5	879	65.863235403959	111
5	879	65.863235403959	112
5	879	65.863235403959	113
5	906	67.824269246775	114
5	906	67.824269246775	115
5	906	67.824269246775	116
5	929	69.076702601315	117
5	929	69.076702601315	118
5	929	69.076702601315	119
5	952	70.354131433685	120
5	952	70.354131433685	121
5	952	70.354131433685	122
5	975	72.165107599304	123
5	975	72.165107599304	124
5	975	72.165107599304	125
5	994	73.627175026148	126
5	994	73.627175026148	127
5	994	73.627175026148	128
5	1017	75.208178828263	129
5	1017	75.208178828263	130
5	1017	75.208178828263	131
5	1046	78.707422666439	132
5	1046	78.707422666439	133
5	1046	78.707422666439	134
5	1069	80.617633386073	135
5	1069	80.617633386073	136
5	1069	80.617633386073	137
5	1085	81.893522411372	138
5	1085	81.893522411372	139
5	1085	81.893522411372	140
5	1112	83.730831123292	141
5	1112	83.730831123292	142
5	1112	83.730831123292	143
5	1130	85.302896175082	144
5	1130	85.302896175082	145
5	1130	85.302896175082	146
5	1153	86.391028176821	147
5	1153	86.391028176821	148
5	1153	86.391028176821	149
5	1190	91.313517477862	150
5	1190	91.313517477862	151
5	1190	91.313517477862	152
5	1207	92.744091130935	153
5	1207	92.744091130935	154
5	1207	92.744091130935	155
5	1230	93.839048907847	156
5	1230	93.839048907847	157
5	1230	93.839048907847	158
5	1258	97.691605512788	159
5	1258	97.691605512788	160
5	1258	97.691605512788	161
5	1286	99.242844537287	162
5	1286	99.242844537287	163
5	1286	99.242844537287	164
5	1306	100.392705226109	165
5	1306	100.392705226109	166
5	1306	100.392705226109	167
5	1330	101.505354764268	168
5	1330	101.505354764268	169
5	1330	101.505354764268	170
5	1355	103.172160728325	171
5	1355	103.172160728325	172
5	1355	103.172160728325	173
5	1374	104.735542305595	174
5	1374	104.735542305595	175
5	1374	104.735542305595	176
5	1399	106.456711715954	177
5	1399	106.456711715954	178
5	1399	106.456711715954	179
5	1422	108.078953888144	180
5	1422	108.078953888144	181
5	1422	108.078953888144	182
5	1444	109.093806411479	183
5	1444	109.093806411479	184
5	1444	109.093806411479	185
5	1464	110.828406360992	186
5	1464	110.828406360992	187
5	1464	110.828406360992	188
5	1488	112.370166833425	189
5	1488	112.370166833425	190
5	1488	112.370166833425	191
5	1512	113.709085306283	192
5	1512	113.709085306283	193
5	1512	113.709085306283	194
5	1531	115.681976743395	195
5	1531	115.681976743395	196
5	1531	115.681976743395	197
5	1562	117.200732395891	198
5	1562	117.200732395891	199
5	1562	117.200732395891	200
5	1582	118.5075520133	201
5	1582	118.5075520133	202
5	1582	118.5075520133	203
5	1601	120.374926244969	204
5	1601	120.374926244969	205
5	1601	120.374926244969	206
5	1624	121.595112967251	207
5	1624	121.595112967251	208
5	1624	121.595112967251	209
5	1654	123.38784013475	210
5	1654	123.38784013475	211
5	1654	123.38784013475	212
5	1674	124.574294871021	213
5	1674	124.574294871021	214
5	1674	124.574294871021	215
5	1700	125.822574629317	216
5	1700	125.822574629317	217
5	1700	125.822574629317	218
5	1719	128.923069428197	219
5	1719	128.923069428197	220
5	1719	128.923069428197	221
5	1743	130.725944164439	222
5	1743	130.725944164439	223
5	1743	130.725944164439	224
5	1771	132.431333792006	225
5	1771	132.431333792006	226
5	1771	132.431333792006	227
5	1788	133.947713247585	228
5	1788	133.947713247585	229
5	1788	133.947713247585	230
5	1814	135.391085211983	231
5	1814	135.391085211983	232
5	1814	135.391085211983	233
5	1840	136.934683031066	234
5	1840	136.934683031066	235
5	1840	136.934683031066	236
5	1861	138.548744050198	237
5	1861	138.548744050198	238
5	1861	138.548744050198	239
5	1881	140.360993728862	240
5	1881	140.360993728862	241
5	1881	140.360993728862	242
5	1909	141.645705138816	243
5	1909	141.645705138816	244
5	1909	141.645705138816	245
5	1930	146.437025778057	246
5	1930	146.437025778057	247
5	1930	146.437025778057	248
5	1955	148.381256929995	249
5	1955	148.381256929995	250
5	1955	148.381256929995	251
5	1976	150.238697177756	252
5	1976	150.238697177756	253
5	1976	150.238697177756	254
5	2001	151.602066609223	255
5	2001	151.602066609223	256
5	2001	151.602066609223	257
5	2021	152.956712719818	258
5	2021	152.956712719818	259
5	2021	152.956712719818	260
5	2044	154.51145734809	261
5	2044	154.51145734809	262
5	2044	154.51145734809	263
5	2072	156.190744027654	264
5	2072	156.190744027654	265
5	2072	156.190744027654	266
5	2092	157.664599526073	267
5	2092	157.664599526073	268
5	2092	157.664599526073	269
5	2118	158.780639280232	270
5	2118	158.780639280232	271
5	2118	158.780639280232	272
5	2139	160.604495913302	273
5	2139	160.604495913302	274
5	2139	160.604495913302	275
5	2163	161.730085076215	276
5	2163	161.730085076215	277
5	2163	161.730085076215	278
5	2182	162.983213722615	279
5	2182	162.983213722615	280
5	2182	162.983213722615	281
5	2212	164.087029118033	282
5	2212	164.087029118033	283
5	2212	164.087029118033	284
5	2235	166.04440910428	285
5	2235	166.04440910428	286
5	2235	166.04440910428	287
5	2258	167.341693989818	288
5	2258	167.341693989818	289
5	2258	167.341693989818	290
5	2281	169.074826148483	291
5	2281	169.074826148483	292
5	2281	169.074826148483	293
5	2297	170.638590581138	294
5	2297	170.638590581138	295
5	2297	170.638590581138	296
5	2327	172.464124585951	297
5	2327	172.464124585951	298
5	2327	172.464124585951	299
5	2346	173.765196372245	300
5	2346	173.765196372245	301
5	2346	173.765196372245	302
5	2371	175.131631629679	303
5	2371	175.131631629679	304
5	2371	175.131631629679	305
5	2396	177.141652082731	306
5	2396	177.141652082731	307
5	2396	177.141652082731	308
5	2421	179.845737976864	309
5	2421	179.845737976864	310
5	2421	179.845737976864	311
5	2441	180.984900721292	312
5	2441	180.984900721292	313
5	2441	180.984900721292	314
5	2467	182.290135413012	315
5	2467	182.290135413012	316
5	2467	182.290135413012	317
5	2486	184.231783714849	318
5	2486	184.231783714849	319
5	2486	184.231783714849	320
5	2510	186.195979620123	321
5	2510	186.195979620123	322
5	2510	186.195979620123	323
5	2533	187.730770688822	324
5	2533	187.730770688822	325
5	2533	187.730770688822	326
5	2556	189.226094783319	327
5	2556	189.226094783319	328
5	2556	189.226094783319	329
5	2581	192.048988260408	330
5	2581	192.048988260408	331
5	2581	192.048988260408	332
5	2607	193.200270604856	333
5	2607	193.200270604856	334
5	2607	193.200270604856	335
5	2627	194.73013744852	336
5	2627	194.73013744852	337
5	2627	194.73013744852	338
5	2650	196.353509887725	339
5	2650	196.353509887725	340
5	2650	196.353509887725	341
5	2676	197.86792285345	342
5	2676	197.86792285345	343
5	2676	197.86792285345	344
5	2696	199.560162221737	345
5	2696	199.560162221737	346
5	2696	199.560162221737	347
5	2720	203.346248668976	348
5	2720	203.346248668976	349
5	2720	203.346248668976	350
5	2749	206.683993387841	351
5	2749	206.683993387841	352
5	2749	206.683993387841	353
5	2772	207.734501659502	354
5	2772	207.734501659502	355
5	2772	207.734501659502	356
5	2795	209.724711495046	357
5	2795	209.724711495046	358
5	2795	209.724711495046	359
5	2815	211.675954428816	360
5	2815	211.675954428816	361
5	2815	211.675954428816	362
5	2835	213.609118454037	363
5	2835	213.609118454037	364
5	2835	213.609118454037	365
5	2859	215.197824317132	366
5	2859	215.197824317132	367
5	2859	215.197824317132	368
5	2885	218.247479999767	369
5	2885	218.247479999767	370
5	2885	218.247479999767	371
5	2907	220.084998058096	372
5	2907	220.084998058096	373
5	2907	220.084998058096	374
5	2935	221.426647002553	375
5	2935	221.426647002553	376
5	2935	221.426647002553	377
5	2955	222.488574062596	378
5	2955	222.488574062596	379
5	2955	222.488574062596	380
5	2974	223.912328554003	381
5	2974	223.912328554003	382
5	2974	223.912328554003	383
5	3001	226.622927130065	384
5	3001	226.622927130065	385
5	3001	226.622927130065	386
5	3023	228.047499521065	387
5	3023	228.047499521065	388
5	3023	228.047499521065	389
5	3048	229.113054463537	390
5	3048	229.113054463537	391
5	3048	229.113054463537	392
5	3069	231.018122822746	393
5	3069	231.018122822746	394
5	3069	231.018122822746	395
5	3096	232.141456897847	396
5	3096	232.141456897847	397
5	3096	232.141456897847	398
5	3117	233.229714357357	399
5	3117	233.229714357357	400
5	3117	233.229714357357	401
5	3144	235.038204350956	402
5	3144	235.038204350956	403
5	3144	235.038204350956	404
5	3163	236.938549178024	405
5	3163	236.938549178024	406
5	3163	236.938549178024	407
5	3190	238.137113145057	408
5	3190	238.137113145057	409
5	3190	238.137113145057	410
6	23	0.250512463835	0
6	46	2.192243490178	1
6	92	5.456413038289	2
6	115	7.016232038679	3
6	138	8.370688394288	4
6	180	11.297656373715	5
6	207	12.3926616263	6
6	232	16.299322761668	7
6	250	17.945088665902	8
6	278	19.855088572241	9
6	298	20.876494263952	10
6	324	22.39121807061	11
6	347	23.538457639926	12
6	368	26.725431227511	13
6	395	27.894995442077	14
6	416	29.256615946908	15
6	435	31.122887030197	16
6	464	32.861411296825	17
6	487	34.624873674213	18
6	510	36.429096167065	19
6	533	37.510263944345	20
6	553	39.327611561438	21
6	575	40.52770928918	22
6	604	43.681765881638	23
6	627	45.010206715779	24
6	647	46.249088239337	25
6	673	47.281238920139	26
6	696	48.966742939571	27
6	721	52.389528558008	28
6	744	54.321934933605	29
6	786	57.557602739035	30
6	813	58.88872556281	31
6	836	60.149066421121	32
6	859	61.6808842059	33
6	886	65.873235403959	34
6	932	69.086702601315	35
6	955	70.364131433685	36
6	978	72.175107599304	37
6	1001	73.637175026148	38
6	1024	75.218178828263	39
6	1049	78.717422666439	40
6	1072	80.627633386073	41
6	1088	81.903522411372	42
6	1115	83.740831123292	43
6	1133	85.312896175082	44
6	1156	86.401028176821	45
6	1193	91.323517477862	46
6	1216	92.754091130935	47
6	1262	97.701605512788	48
6	1289	99.252844537287	49
6	1312	100.402705226109	50
6	1335	101.515354764268	51
6	1358	103.182160728325	52
6	1378	104.745542305595	53
6	1404	106.466711715954	54
6	1427	108.088953888144	55
6	1450	109.103806411479	56
6	1471	110.838406360992	57
6	1519	113.719085306283	58
6	1534	115.691976743395	59
6	1585	118.5175520133	60
6	1606	120.384926244969	61
6	1630	121.605112967251	62
6	1657	123.39784013475	63
6	1680	124.584294871021	64
6	1703	125.832574629317	65
6	1728	128.933069428197	66
6	1751	130.735944164439	67
6	1774	132.441333792006	68
6	1820	135.401085211983	69
6	1843	136.944683031066	70
6	1866	138.558744050198	71
6	1912	141.655705138816	72
6	1958	148.391256929995	73
6	1982	150.248697177756	74
6	2008	151.612066609223	75
6	2028	152.966712719818	76
6	2048	154.52145734809	77
6	2077	156.200744027654	78
6	2100	157.674599526073	79
6	2123	158.790639280232	80
6	2146	160.614495913302	81
6	2169	161.740085076215	82
6	2187	162.993213722615	83
6	2215	164.097029118033	84
6	2261	167.351693989818	85
6	2284	169.084826148483	86
6	2305	170.648590581138	87
6	2350	173.775196372245	88
6	2376	175.141631629679	89
6	2399	177.151652082731	90
6	2424	179.855737976864	91
6	2444	180.994900721292	92
6	2470	182.300135413012	93
6	2493	184.241783714849	94
6	2516	186.205979620123	95
6	2539	187.740770688822	96
6	2560	189.236094783319	97
6	2585	192.058988260408	98
6	2610	193.210270604856	99
6	2631	194.74013744852	100
6	2656	196.363509887725	101
6	2679	197.87792285345	102
6	2702	199.570162221737	103
6	2727	203.356248668976	104
6	2752	206.693993387841	105
6	2775	207.744501659502	106
6	2798	209.734711495046	107
6	2821	211.685954428816	108
6	2844	213.619118454037	109
6	2863	215.207824317132	110
6	2892	218.257479999767	111
6	2915	220.094998058096	112
6	2938	221.436647002553	113
6	2961	222.498574062596	114
6	3032	228.057499521065	115
6	3055	229.123054463537	116
6	3076	231.028122822746	117
6	3101	232.151456897847	118
6	3121	233.239714357357	119
6	3147	235.048204350956	120
6	3166	236.948549178024	121
6	3193	238.147113145057	122

