version 2
run General-2-20230921-21:39:14-6065
attr configname General
attr datetime 20230921-21:39:14
attr experiment General
attr inifile omnetpp.ini
attr iterationvars ""
attr iterationvarsf ""
attr measurement ""
attr network Network2
attr processid 6065
attr repetition 2
attr replication #2
attr resultdir results
attr runnumber 2
attr seedset 2
param Network2.node[*].transmissionTime "uniform(1s, 2s)"
param Network2.node[*].delayTime "uniform(0.01s, 0.2s)"
param Network2.node[*].processingTime exponential(0.01s)
param Network2.node[*].lossProbability 0.1

vector 0 Network2.node[0] txVector ETV
vector 1 Network2.node[1] txVector ETV
vector 2 Network2.node[6] txVector ETV
vector 3 Network2.node[3] txVector ETV
vector 4 Network2.node[2] txVector ETV
vector 5 Network2.node[4] txVector ETV
vector 6 Network2.node[5] rxVector ETV
0	1	0.092839031499	0
0	3	1.277921112972	1
0	26	3.20946197656	2
0	49	4.723040094385	3
0	72	6.217329862313	4
0	95	8.01096731496	5
0	118	9.478809806536	6
0	141	11.449390121288	7
0	164	13.333861720533	8
0	187	14.996063742571	9
0	210	16.799515871814	10
0	233	18.342861104774	11
0	256	20.239234981144	12
0	279	21.534407286922	13
0	302	22.869501951168	14
0	325	23.900091429026	15
0	348	25.333837344329	16
0	371	26.784064523894	17
0	394	28.077808257909	18
0	417	29.648082466349	19
0	440	31.31540963335	20
0	463	33.148570876355	21
0	486	34.188990663291	22
0	509	35.661199251675	23
0	532	37.047782712403	24
0	534	38.933046390555	25
0	557	40.916184757623	26
0	580	42.282071323852	27
0	603	44.175237509209	28
0	605	45.854658921968	29
0	628	47.328551828882	30
0	651	48.831558604513	31
0	674	50.577097419205	32
0	697	52.041309764397	33
0	717	54.017854319441	34
0	740	55.920098918977	35
0	763	57.625601944302	36
0	786	58.707481316545	37
0	806	59.972924788737	38
0	829	61.468286787647	39
0	852	62.556936098284	40
0	875	64.295806949048	41
0	898	66.161365237108	42
0	921	67.824000443819	43
0	944	69.479600761573	44
0	967	70.91472338212	45
0	990	72.353248423685	46
0	1013	73.740887472427	47
0	1036	75.13646946477	48
0	1059	76.442386611386	49
0	1082	78.269184091848	50
0	1105	79.272757530932	51
0	1107	81.063279568239	52
0	1130	82.491484955207	53
0	1153	83.936166773338	54
0	1176	85.398550929755	55
0	1199	86.854782966685	56
0	1222	88.408663614907	57
0	1245	90.084286835299	58
0	1268	92.006716154537	59
0	1291	93.120350084056	60
0	1314	94.825453035788	61
0	1316	96.296167760178	62
0	1318	97.5872838828	63
0	1341	98.692673752339	64
0	1364	100.682503445096	65
0	1387	102.67075868931	66
0	1410	104.170956677546	67
0	1433	105.663468161387	68
0	1456	106.906236036004	69
0	1479	108.820000023137	70
0	1502	110.165835469983	71
0	1525	111.598038450138	72
0	1527	112.811074993828	73
0	1550	114.45425531573	74
0	1573	116.149982268246	75
0	1596	117.843241691146	76
0	1619	119.308683106232	77
0	1642	120.535229691326	78
0	1665	121.978702229469	79
0	1688	123.297601671212	80
0	1690	124.929912596962	81
0	1713	125.940424783409	82
0	1736	127.308810821522	83
0	1759	128.310734767953	84
0	1782	130.062386956552	85
0	1805	131.347572272664	86
0	1828	132.563506507568	87
0	1851	134.463998083278	88
0	1874	136.121234900804	89
0	1897	138.036810027689	90
0	1916	139.889858927133	91
0	1939	141.286379391581	92
0	1958	142.620399867671	93
0	1981	144.18981131308	94
0	2004	145.57758739779	95
0	2027	146.730258356801	96
0	2050	148.387732232244	97
0	2073	149.706224747489	98
0	2096	151.112289252712	99
0	2119	152.782986422789	100
0	2142	153.813141340877	101
0	2165	155.663797742243	102
0	2188	156.732514525552	103
0	2211	158.497910632075	104
0	2234	160.114230101251	105
0	2257	161.154183622471	106
0	2280	163.119455753381	107
0	2303	164.265586829998	108
0	2326	165.848552934613	109
0	2349	167.371878107797	110
0	2372	168.725756889462	111
0	2374	170.176126764409	112
0	2397	171.713649975855	113
0	2420	173.70931076959	114
0	2443	175.263183682945	115
0	2466	176.297752539415	116
0	2489	178.067787968341	117
0	2512	179.94659816336	118
0	2535	181.822622849626	119
0	2558	183.214710276128	120
0	2581	184.790484007235	121
0	2601	186.733918102245	122
0	2624	188.525661686921	123
0	2647	190.028261586811	124
0	2670	191.616226756267	125
0	2693	193.612831530647	126
0	2716	194.631242969559	127
0	2718	196.276485639411	128
0	2741	197.80055192371	129
0	2764	198.827093621037	130
0	2787	200.412683305583	131
0	2810	201.461683720836	132
0	2833	202.991225699681	133
0	2856	204.056821939089	134
0	2879	205.280559500699	135
0	2902	206.798174651825	136
0	2904	208.416809795677	137
0	2927	210.310792598195	138
0	2950	212.189048827646	139
0	2973	213.576031649273	140
0	2996	214.936858835651	141
0	3019	216.420797913123	142
0	3042	217.913088504944	143
0	3065	219.877584214343	144
0	3088	221.784663152902	145
0	3111	223.596583119149	146
0	3134	224.629460172516	147
0	3157	225.855802683879	148
0	3180	227.362171848325	149
0	3203	229.195737042485	150
0	3226	230.894642546095	151
0	3249	232.429557821967	152
0	3272	234.13620555659	153
0	3295	235.993449426044	154
0	3318	237.401364746524	155
0	3341	239.284343095051	156
1	5	1.317434556699	0
1	5	1.317434556699	1
1	5	1.317434556699	2
1	5	1.317434556699	3
1	28	3.22150077773	4
1	28	3.22150077773	5
1	28	3.22150077773	6
1	28	3.22150077773	7
1	51	4.741381791554	8
1	51	4.741381791554	9
1	51	4.741381791554	10
1	51	4.741381791554	11
1	74	6.236004967583	12
1	74	6.236004967583	13
1	74	6.236004967583	14
1	74	6.236004967583	15
1	97	8.024171754298	16
1	97	8.024171754298	17
1	97	8.024171754298	18
1	97	8.024171754298	19
1	120	9.504917111539	20
1	120	9.504917111539	21
1	120	9.504917111539	22
1	120	9.504917111539	23
1	143	11.467456278192	24
1	143	11.467456278192	25
1	143	11.467456278192	26
1	143	11.467456278192	27
1	166	13.348764166394	28
1	166	13.348764166394	29
1	166	13.348764166394	30
1	166	13.348764166394	31
1	189	15.008669418898	32
1	189	15.008669418898	33
1	189	15.008669418898	34
1	189	15.008669418898	35
1	212	16.812011233706	36
1	212	16.812011233706	37
1	212	16.812011233706	38
1	212	16.812011233706	39
1	235	18.371052239675	40
1	235	18.371052239675	41
1	235	18.371052239675	42
1	235	18.371052239675	43
1	258	20.251308747988	44
1	258	20.251308747988	45
1	258	20.251308747988	46
1	258	20.251308747988	47
1	281	21.546171024914	48
1	281	21.546171024914	49
1	281	21.546171024914	50
1	281	21.546171024914	51
1	304	22.883920155454	52
1	304	22.883920155454	53
1	304	22.883920155454	54
1	304	22.883920155454	55
1	327	23.918938724727	56
1	327	23.918938724727	57
1	327	23.918938724727	58
1	327	23.918938724727	59
1	350	25.35614637197	60
1	350	25.35614637197	61
1	350	25.35614637197	62
1	350	25.35614637197	63
1	373	26.80740535919	64
1	373	26.80740535919	65
1	373	26.80740535919	66
1	373	26.80740535919	67
1	396	28.112663079969	68
1	396	28.112663079969	69
1	396	28.112663079969	70
1	396	28.112663079969	71
1	419	29.669879134695	72
1	419	29.669879134695	73
1	419	29.669879134695	74
1	419	29.669879134695	75
1	442	31.327713753349	76
1	442	31.327713753349	77
1	442	31.327713753349	78
1	442	31.327713753349	79
1	465	33.163599683355	80
1	465	33.163599683355	81
1	465	33.163599683355	82
1	465	33.163599683355	83
1	488	34.201994695115	84
1	488	34.201994695115	85
1	488	34.201994695115	86
1	488	34.201994695115	87
1	511	35.684467638101	88
1	511	35.684467638101	89
1	511	35.684467638101	90
1	511	35.684467638101	91
1	536	38.953628014325	92
1	536	38.953628014325	93
1	536	38.953628014325	94
1	536	38.953628014325	95
1	559	40.961434608405	96
1	559	40.961434608405	97
1	559	40.961434608405	98
1	559	40.961434608405	99
1	582	42.309494760955	100
1	582	42.309494760955	101
1	582	42.309494760955	102
1	582	42.309494760955	103
1	607	45.873202564304	104
1	607	45.873202564304	105
1	607	45.873202564304	106
1	607	45.873202564304	107
1	630	47.343300019506	108
1	630	47.343300019506	109
1	630	47.343300019506	110
1	630	47.343300019506	111
1	653	48.846104097702	112
1	653	48.846104097702	113
1	653	48.846104097702	114
1	653	48.846104097702	115
1	676	50.592453184339	116
1	676	50.592453184339	117
1	676	50.592453184339	118
1	676	50.592453184339	119
1	699	52.058120136851	120
1	699	52.058120136851	121
1	699	52.058120136851	122
1	699	52.058120136851	123
1	719	54.031221129791	124
1	719	54.031221129791	125
1	719	54.031221129791	126
1	719	54.031221129791	127
1	742	55.931135523305	128
1	742	55.931135523305	129
1	742	55.931135523305	130
1	742	55.931135523305	131
1	765	57.642324679346	132
1	765	57.642324679346	133
1	765	57.642324679346	134
1	765	57.642324679346	135
1	788	58.720341275336	136
1	788	58.720341275336	137
1	788	58.720341275336	138
1	788	58.720341275336	139
1	808	59.986502302058	140
1	808	59.986502302058	141
1	808	59.986502302058	142
1	808	59.986502302058	143
1	831	61.481466905409	144
1	831	61.481466905409	145
1	831	61.481466905409	146
1	831	61.481466905409	147
1	854	62.586697787544	148
1	854	62.586697787544	149
1	854	62.586697787544	150
1	854	62.586697787544	151
1	877	64.315387019665	152
1	877	64.315387019665	153
1	877	64.315387019665	154
1	877	64.315387019665	155
1	900	66.171996272771	156
1	900	66.171996272771	157
1	900	66.171996272771	158
1	900	66.171996272771	159
1	923	67.840117232404	160
1	923	67.840117232404	161
1	923	67.840117232404	162
1	923	67.840117232404	163
1	946	69.513982193091	164
1	946	69.513982193091	165
1	946	69.513982193091	166
1	946	69.513982193091	167
1	969	70.926156375934	168
1	969	70.926156375934	169
1	969	70.926156375934	170
1	969	70.926156375934	171
1	992	72.363772490711	172
1	992	72.363772490711	173
1	992	72.363772490711	174
1	992	72.363772490711	175
1	1015	73.761944964684	176
1	1015	73.761944964684	177
1	1015	73.761944964684	178
1	1015	73.761944964684	179
1	1038	75.158826230211	180
1	1038	75.158826230211	181
1	1038	75.158826230211	182
1	1038	75.158826230211	183
1	1061	76.467910549435	184
1	1061	76.467910549435	185
1	1061	76.467910549435	186
1	1061	76.467910549435	187
1	1084	78.286021253062	188
1	1084	78.286021253062	189
1	1084	78.286021253062	190
1	1084	78.286021253062	191
1	1109	81.08143596402	192
1	1109	81.08143596402	193
1	1109	81.08143596402	194
1	1109	81.08143596402	195
1	1132	82.504117773492	196
1	1132	82.504117773492	197
1	1132	82.504117773492	198
1	1132	82.504117773492	199
1	1155	83.947657326199	200
1	1155	83.947657326199	201
1	1155	83.947657326199	202
1	1155	83.947657326199	203
1	1178	85.414756174102	204
1	1178	85.414756174102	205
1	1178	85.414756174102	206
1	1178	85.414756174102	207
1	1201	86.867607761029	208
1	1201	86.867607761029	209
1	1201	86.867607761029	210
1	1201	86.867607761029	211
1	1224	88.466543889004	212
1	1224	88.466543889004	213
1	1224	88.466543889004	214
1	1224	88.466543889004	215
1	1247	90.111779898727	216
1	1247	90.111779898727	217
1	1247	90.111779898727	218
1	1247	90.111779898727	219
1	1270	92.026965423644	220
1	1270	92.026965423644	221
1	1270	92.026965423644	222
1	1270	92.026965423644	223
1	1293	93.133363806522	224
1	1293	93.133363806522	225
1	1293	93.133363806522	226
1	1293	93.133363806522	227
1	1320	97.616631615215	228
1	1320	97.616631615215	229
1	1320	97.616631615215	230
1	1320	97.616631615215	231
1	1343	98.718104368984	232
1	1343	98.718104368984	233
1	1343	98.718104368984	234
1	1343	98.718104368984	235
1	1366	100.702473340757	236
1	1366	100.702473340757	237
1	1366	100.702473340757	238
1	1366	100.702473340757	239
1	1389	102.681161345416	240
1	1389	102.681161345416	241
1	1389	102.681161345416	242
1	1389	102.681161345416	243
1	1412	104.204302126811	244
1	1412	104.204302126811	245
1	1412	104.204302126811	246
1	1412	104.204302126811	247
1	1435	105.673675951377	248
1	1435	105.673675951377	249
1	1435	105.673675951377	250
1	1435	105.673675951377	251
1	1458	106.9168631108	252
1	1458	106.9168631108	253
1	1458	106.9168631108	254
1	1458	106.9168631108	255
1	1481	108.8800215967	256
1	1481	108.8800215967	257
1	1481	108.8800215967	258
1	1481	108.8800215967	259
1	1504	110.18164160073	260
1	1504	110.18164160073	261
1	1504	110.18164160073	262
1	1504	110.18164160073	263
1	1529	112.826966876502	264
1	1529	112.826966876502	265
1	1529	112.826966876502	266
1	1529	112.826966876502	267
1	1552	114.46884881369	268
1	1552	114.46884881369	269
1	1552	114.46884881369	270
1	1552	114.46884881369	271
1	1575	116.160757910531	272
1	1575	116.160757910531	273
1	1575	116.160757910531	274
1	1575	116.160757910531	275
1	1598	117.862254630299	276
1	1598	117.862254630299	277
1	1598	117.862254630299	278
1	1598	117.862254630299	279
1	1621	119.331467153492	280
1	1621	119.331467153492	281
1	1621	119.331467153492	282
1	1621	119.331467153492	283
1	1644	120.550912879021	284
1	1644	120.550912879021	285
1	1644	120.550912879021	286
1	1644	120.550912879021	287
1	1667	122.002179051333	288
1	1667	122.002179051333	289
1	1667	122.002179051333	290
1	1667	122.002179051333	291
1	1692	124.945116883937	292
1	1692	124.945116883937	293
1	1692	124.945116883937	294
1	1692	124.945116883937	295
1	1715	125.956801750716	296
1	1715	125.956801750716	297
1	1715	125.956801750716	298
1	1715	125.956801750716	299
1	1738	127.321597152545	300
1	1738	127.321597152545	301
1	1738	127.321597152545	302
1	1738	127.321597152545	303
1	1761	128.338451072843	304
1	1761	128.338451072843	305
1	1761	128.338451072843	306
1	1761	128.338451072843	307
1	1784	130.076321355305	308
1	1784	130.076321355305	309
1	1784	130.076321355305	310
1	1784	130.076321355305	311
1	1807	131.363865090308	312
1	1807	131.363865090308	313
1	1807	131.363865090308	314
1	1807	131.363865090308	315
1	1830	132.584400720049	316
1	1830	132.584400720049	317
1	1830	132.584400720049	318
1	1830	132.584400720049	319
1	1853	134.477077187739	320
1	1853	134.477077187739	321
1	1853	134.477077187739	322
1	1853	134.477077187739	323
1	1876	136.138065309261	324
1	1876	136.138065309261	325
1	1876	136.138065309261	326
1	1876	136.138065309261	327
1	1899	138.065584597285	328
1	1899	138.065584597285	329
1	1899	138.065584597285	330
1	1899	138.065584597285	331
1	1918	139.902797625641	332
1	1918	139.902797625641	333
1	1918	139.902797625641	334
1	1918	139.902797625641	335
1	1941	141.305549352327	336
1	1941	141.305549352327	337
1	1941	141.305549352327	338
1	1941	141.305549352327	339
1	1960	142.632400677179	340
1	1960	142.632400677179	341
1	1960	142.632400677179	342
1	1960	142.632400677179	343
1	1983	144.240717965832	344
1	1983	144.240717965832	345
1	1983	144.240717965832	346
1	1983	144.240717965832	347
1	2006	145.604377252702	348
1	2006	145.604377252702	349
1	2006	145.604377252702	350
1	2006	145.604377252702	351
1	2029	146.767109797519	352
1	2029	146.767109797519	353
1	2029	146.767109797519	354
1	2029	146.767109797519	355
1	2052	148.40646041903	356
1	2052	148.40646041903	357
1	2052	148.40646041903	358
1	2052	148.40646041903	359
1	2075	149.716896819765	360
1	2075	149.716896819765	361
1	2075	149.716896819765	362
1	2075	149.716896819765	363
1	2098	151.127491290132	364
1	2098	151.127491290132	365
1	2098	151.127491290132	366
1	2098	151.127491290132	367
1	2121	152.795208424392	368
1	2121	152.795208424392	369
1	2121	152.795208424392	370
1	2121	152.795208424392	371
1	2144	153.83022466909	372
1	2144	153.83022466909	373
1	2144	153.83022466909	374
1	2144	153.83022466909	375
1	2167	155.674435564965	376
1	2167	155.674435564965	377
1	2167	155.674435564965	378
1	2167	155.674435564965	379
1	2190	156.744609974626	380
1	2190	156.744609974626	381
1	2190	156.744609974626	382
1	2190	156.744609974626	383
1	2213	158.548928146763	384
1	2213	158.548928146763	385
1	2213	158.548928146763	386
1	2213	158.548928146763	387
1	2236	160.131582948798	388
1	2236	160.131582948798	389
1	2236	160.131582948798	390
1	2236	160.131582948798	391
1	2259	161.169817215919	392
1	2259	161.169817215919	393
1	2259	161.169817215919	394
1	2259	161.169817215919	395
1	2282	163.134950799618	396
1	2282	163.134950799618	397
1	2282	163.134950799618	398
1	2282	163.134950799618	399
1	2305	164.278918140001	400
1	2305	164.278918140001	401
1	2305	164.278918140001	402
1	2305	164.278918140001	403
1	2328	165.859079418287	404
1	2328	165.859079418287	405
1	2328	165.859079418287	406
1	2328	165.859079418287	407
1	2351	167.400371824993	408
1	2351	167.400371824993	409
1	2351	167.400371824993	410
1	2351	167.400371824993	411
1	2376	170.22375127676	412
1	2376	170.22375127676	413
1	2376	170.22375127676	414
1	2376	170.22375127676	415
1	2399	171.729027740239	416
1	2399	171.729027740239	417
1	2399	171.729027740239	418
1	2399	171.729027740239	419
1	2422	173.723712396187	420
1	2422	173.723712396187	421
1	2422	173.723712396187	422
1	2422	173.723712396187	423
1	2445	175.28245401228	424
1	2445	175.28245401228	425
1	2445	175.28245401228	426
1	2445	175.28245401228	427
1	2468	176.348544016126	428
1	2468	176.348544016126	429
1	2468	176.348544016126	430
1	2468	176.348544016126	431
1	2491	178.08436138573	432
1	2491	178.08436138573	433
1	2491	178.08436138573	434
1	2491	178.08436138573	435
1	2514	179.958667235052	436
1	2514	179.958667235052	437
1	2514	179.958667235052	438
1	2514	179.958667235052	439
1	2537	181.834531927287	440
1	2537	181.834531927287	441
1	2537	181.834531927287	442
1	2537	181.834531927287	443
1	2560	183.229989928448	444
1	2560	183.229989928448	445
1	2560	183.229989928448	446
1	2560	183.229989928448	447
1	2583	184.825128720226	448
1	2583	184.825128720226	449
1	2583	184.825128720226	450
1	2583	184.825128720226	451
1	2603	186.745790875042	452
1	2603	186.745790875042	453
1	2603	186.745790875042	454
1	2603	186.745790875042	455
1	2626	188.543682267924	456
1	2626	188.543682267924	457
1	2626	188.543682267924	458
1	2626	188.543682267924	459
1	2649	190.039139820621	460
1	2649	190.039139820621	461
1	2649	190.039139820621	462
1	2649	190.039139820621	463
1	2672	191.647693631592	464
1	2672	191.647693631592	465
1	2672	191.647693631592	466
1	2672	191.647693631592	467
1	2695	193.624136555672	468
1	2695	193.624136555672	469
1	2695	193.624136555672	470
1	2695	193.624136555672	471
1	2720	196.300625575121	472
1	2720	196.300625575121	473
1	2720	196.300625575121	474
1	2720	196.300625575121	475
1	2743	197.820800115673	476
1	2743	197.820800115673	477
1	2743	197.820800115673	478
1	2743	197.820800115673	479
1	2766	198.837641362102	480
1	2766	198.837641362102	481
1	2766	198.837641362102	482
1	2766	198.837641362102	483
1	2789	200.431071778228	484
1	2789	200.431071778228	485
1	2789	200.431071778228	486
1	2789	200.431071778228	487
1	2812	201.473503158903	488
1	2812	201.473503158903	489
1	2812	201.473503158903	490
1	2812	201.473503158903	491
1	2835	203.008078177598	492
1	2835	203.008078177598	493
1	2835	203.008078177598	494
1	2835	203.008078177598	495
1	2858	204.075253069067	496
1	2858	204.075253069067	497
1	2858	204.075253069067	498
1	2858	204.075253069067	499
1	2881	205.296998011954	500
1	2881	205.296998011954	501
1	2881	205.296998011954	502
1	2881	205.296998011954	503
1	2906	208.428588923905	504
1	2906	208.428588923905	505
1	2906	208.428588923905	506
1	2906	208.428588923905	507
1	2929	210.323375842588	508
1	2929	210.323375842588	509
1	2929	210.323375842588	510
1	2929	210.323375842588	511
1	2952	212.219383533116	512
1	2952	212.219383533116	513
1	2952	212.219383533116	514
1	2952	212.219383533116	515
1	2975	213.589843162121	516
1	2975	213.589843162121	517
1	2975	213.589843162121	518
1	2975	213.589843162121	519
1	2998	214.952012599628	520
1	2998	214.952012599628	521
1	2998	214.952012599628	522
1	2998	214.952012599628	523
1	3021	216.453180409824	524
1	3021	216.453180409824	525
1	3021	216.453180409824	526
1	3021	216.453180409824	527
1	3044	217.958179592433	528
1	3044	217.958179592433	529
1	3044	217.958179592433	530
1	3044	217.958179592433	531
1	3067	219.895571405544	532
1	3067	219.895571405544	533
1	3067	219.895571405544	534
1	3067	219.895571405544	535
1	3090	221.795763726793	536
1	3090	221.795763726793	537
1	3090	221.795763726793	538
1	3090	221.795763726793	539
1	3113	223.613397607331	540
1	3113	223.613397607331	541
1	3113	223.613397607331	542
1	3113	223.613397607331	543
1	3136	224.656201585602	544
1	3136	224.656201585602	545
1	3136	224.656201585602	546
1	3136	224.656201585602	547
1	3159	225.867741532639	548
1	3159	225.867741532639	549
1	3159	225.867741532639	550
1	3159	225.867741532639	551
1	3182	227.385945728182	552
1	3182	227.385945728182	553
1	3182	227.385945728182	554
1	3182	227.385945728182	555
1	3205	229.216051395946	556
1	3205	229.216051395946	557
1	3205	229.216051395946	558
1	3205	229.216051395946	559
1	3228	230.933915185222	560
1	3228	230.933915185222	561
1	3228	230.933915185222	562
1	3228	230.933915185222	563
1	3251	232.451902324824	564
1	3251	232.451902324824	565
1	3251	232.451902324824	566
1	3251	232.451902324824	567
1	3274	234.147984126022	568
1	3274	234.147984126022	569
1	3274	234.147984126022	570
1	3274	234.147984126022	571
1	3297	236.008531894342	572
1	3297	236.008531894342	573
1	3297	236.008531894342	574
1	3297	236.008531894342	575
1	3320	237.425589631491	576
1	3320	237.425589631491	577
1	3320	237.425589631491	578
1	3320	237.425589631491	579
1	3343	239.299534397572	580
1	3343	239.299534397572	581
1	3343	239.299534397572	582
1	3343	239.299534397572	583
2	10	1.329724269646	0
2	10	1.329724269646	1
2	34	3.236731578982	2
2	34	3.236731578982	3
2	58	4.755686948539	4
2	58	4.755686948539	5
2	80	6.253128795217	6
2	80	6.253128795217	7
2	103	8.038734219567	8
2	103	8.038734219567	9
2	138	9.547184611474	10
2	138	9.547184611474	11
2	149	11.490802677826	12
2	149	11.490802677826	13
2	171	13.364070138401	14
2	171	13.364070138401	15
2	194	15.020538464912	16
2	194	15.020538464912	17
2	217	16.830097700115	18
2	217	16.830097700115	19
2	242	18.393076001225	20
2	242	18.393076001225	21
2	263	20.263728500346	22
2	263	20.263728500346	23
2	290	21.569709491953	24
2	290	21.569709491953	25
2	309	22.894599343548	26
2	309	22.894599343548	27
2	332	23.931258673751	28
2	332	23.931258673751	29
2	364	25.38501556076	30
2	364	25.38501556076	31
2	388	26.845614832281	32
2	388	26.845614832281	33
2	410	28.156124677635	34
2	410	28.156124677635	35
2	425	29.684135251958	36
2	425	29.684135251958	37
2	456	31.373089139374	38
2	456	31.373089139374	39
2	480	33.201211199059	40
2	480	33.201211199059	41
2	493	34.214519165147	42
2	493	34.214519165147	43
2	518	35.700081612621	44
2	518	35.700081612621	45
2	541	38.971814002618	46
2	541	38.971814002618	47
2	574	41.013788003281	48
2	574	41.013788003281	49
2	587	42.321724898815	50
2	587	42.321724898815	51
2	612	45.884551145402	52
2	612	45.884551145402	53
2	635	47.355769093209	54
2	635	47.355769093209	55
2	659	48.858368701328	56
2	659	48.858368701328	57
2	690	50.625125824151	58
2	690	50.625125824151	59
2	724	54.045267183879	60
2	724	54.045267183879	61
2	748	55.951395822313	62
2	748	55.951395822313	63
2	779	57.664174198687	64
2	779	57.664174198687	65
2	813	59.99795491554	66
2	813	59.99795491554	67
2	836	61.501247490992	68
2	836	61.501247490992	69
2	859	62.604985762244	70
2	859	62.604985762244	71
2	882	64.329982060824	72
2	882	64.329982060824	73
2	906	66.189435330613	74
2	906	66.189435330613	75
2	937	67.875991708448	76
2	937	67.875991708448	77
2	953	69.528741816929	78
2	953	69.528741816929	79
2	974	70.939043653544	80
2	974	70.939043653544	81
2	998	72.377818741512	82
2	998	72.377818741512	83
2	1020	73.775061568602	84
2	1020	73.775061568602	85
2	1044	75.172101931543	86
2	1044	75.172101931543	87
2	1066	76.481278625508	88
2	1066	76.481278625508	89
2	1089	78.303773899784	90
2	1089	78.303773899784	91
2	1124	81.119399678876	92
2	1124	81.119399678876	93
2	1146	82.534650954041	94
2	1146	82.534650954041	95
2	1170	83.971343963486	96
2	1170	83.971343963486	97
2	1183	85.425852814685	98
2	1183	85.425852814685	99
2	1207	86.8831387658	100
2	1207	86.8831387658	101
2	1230	88.490203954831	102
2	1230	88.490203954831	103
2	1253	90.123989515283	104
2	1253	90.123989515283	105
2	1276	92.040177618661	106
2	1276	92.040177618661	107
2	1298	93.145968990956	108
2	1298	93.145968990956	109
2	1335	97.662128009592	110
2	1335	97.662128009592	111
2	1349	98.735061649801	112
2	1349	98.735061649801	113
2	1372	100.726231501986	114
2	1372	100.726231501986	115
2	1394	102.692355212604	116
2	1394	102.692355212604	117
2	1423	104.237460867579	118
2	1423	104.237460867579	119
2	1441	105.692823871793	120
2	1441	105.692823871793	121
2	1464	106.935385580134	122
2	1464	106.935385580134	123
2	1486	108.892941857451	124
2	1486	108.892941857451	125
2	1510	110.194445364089	126
2	1510	110.194445364089	127
2	1535	112.844968346561	128
2	1535	112.844968346561	129
2	1557	114.481554606545	130
2	1557	114.481554606545	131
2	1582	116.182863768083	132
2	1582	116.182863768083	133
2	1604	117.878056461016	134
2	1604	117.878056461016	135
2	1626	119.347189674507	136
2	1626	119.347189674507	137
2	1649	120.57162590443	138
2	1649	120.57162590443	139
2	1672	122.015415524374	140
2	1672	122.015415524374	141
2	1697	124.956019046488	142
2	1697	124.956019046488	143
2	1721	125.968993112078	144
2	1721	125.968993112078	145
2	1749	127.345788869214	146
2	1749	127.345788869214	147
2	1766	128.349533274869	148
2	1766	128.349533274869	149
2	1789	130.088853841529	150
2	1789	130.088853841529	151
2	1813	131.381377229791	152
2	1813	131.381377229791	153
2	1835	132.596286406416	154
2	1835	132.596286406416	155
2	1858	134.490280858832	156
2	1858	134.490280858832	157
2	1881	136.15733444069	158
2	1881	136.15733444069	159
2	1904	138.081677176021	160
2	1904	138.081677176021	161
2	1923	139.914848925574	162
2	1923	139.914848925574	163
2	1951	141.330929327631	164
2	1951	141.330929327631	165
2	1966	142.649091174246	166
2	1966	142.649091174246	167
2	1989	144.259843559723	168
2	1989	144.259843559723	169
2	2011	145.615749055821	170
2	2011	145.615749055821	171
2	2035	146.77907425725	172
2	2035	146.77907425725	173
2	2067	148.436666346776	174
2	2067	148.436666346776	175
2	2082	149.72895903926	176
2	2082	149.72895903926	177
2	2103	151.144275200029	178
2	2103	151.144275200029	179
2	2127	152.813879927393	180
2	2127	152.813879927393	181
2	2151	153.849993258829	182
2	2151	153.849993258829	183
2	2177	155.715711939553	184
2	2177	155.715711939553	185
2	2197	156.768105936621	186
2	2197	156.768105936621	187
2	2231	158.627065589728	188
2	2231	158.627065589728	189
2	2242	160.167774450936	190
2	2242	160.167774450936	191
2	2264	161.183073236523	192
2	2264	161.183073236523	193
2	2293	163.158450345682	194
2	2293	163.158450345682	195
2	2311	164.29235949307	196
2	2311	164.29235949307	197
2	2335	165.886443082093	198
2	2335	165.886443082093	199
2	2358	167.421034969012	200
2	2358	167.421034969012	201
2	2390	170.25640171473	202
2	2390	170.25640171473	203
2	2404	171.739696092273	204
2	2404	171.739696092273	205
2	2436	173.756484570701	206
2	2436	173.756484570701	207
2	2450	175.294900664966	208
2	2450	175.294900664966	209
2	2473	176.373060220153	210
2	2473	176.373060220153	211
2	2497	178.107974158683	212
2	2497	178.107974158683	213
2	2528	179.990677724744	214
2	2528	179.990677724744	215
2	2543	181.84975415477	216
2	2543	181.84975415477	217
2	2566	183.255870869184	218
2	2566	183.255870869184	219
2	2608	186.756491257683	220
2	2608	186.756491257683	221
2	2633	188.558813666884	222
2	2633	188.558813666884	223
2	2654	190.050793528392	224
2	2654	190.050793528392	225
2	2678	191.676289839695	226
2	2678	191.676289839695	227
2	2701	193.638744332593	228
2	2701	193.638744332593	229
2	2726	196.314733786211	230
2	2726	196.314733786211	231
2	2750	197.83518726529	232
2	2750	197.83518726529	233
2	2771	198.849258584085	234
2	2771	198.849258584085	235
2	2794	200.442065081835	236
2	2794	200.442065081835	237
2	2830	201.53120222481	238
2	2830	201.53120222481	239
2	2846	203.030528314307	240
2	2846	203.030528314307	241
2	2864	204.089722148221	242
2	2864	204.089722148221	243
2	2886	205.323478314133	244
2	2886	205.323478314133	245
2	2920	208.48382881056	246
2	2920	208.48382881056	247
2	2935	210.344075010362	248
2	2935	210.344075010362	249
2	2957	212.229549425686	250
2	2957	212.229549425686	251
2	2980	213.610637724735	252
2	2980	213.610637724735	253
2	3016	214.994091540867	254
2	3016	214.994091540867	255
2	3027	216.478435567759	256
2	3027	216.478435567759	257
2	3050	217.984267696892	258
2	3050	217.984267696892	259
2	3073	219.91315037718	260
2	3073	219.91315037718	261
2	3108	221.830680816974	262
2	3108	221.830680816974	263
2	3119	223.627859441039	264
2	3119	223.627859441039	265
2	3143	224.681538564474	266
2	3143	224.681538564474	267
2	3170	225.907755385943	268
2	3170	225.907755385943	269
2	3188	227.403608095506	270
2	3188	227.403608095506	271
2	3211	229.228839692271	272
2	3211	229.228839692271	273
2	3233	230.94499130127	274
2	3233	230.94499130127	275
2	3256	232.462136357634	276
2	3256	232.462136357634	277
2	3279	234.158434878084	278
2	3279	234.158434878084	279
2	3303	236.027515391141	280
2	3303	236.027515391141	281
2	3327	237.442713937273	282
2	3327	237.442713937273	283
2	3349	239.315387263687	284
2	3349	239.315387263687	285
3	11	1.331444330932	0
3	11	1.331444330932	1
3	11	1.331444330932	2
3	35	3.239401926024	3
3	35	3.239401926024	4
3	35	3.239401926024	5
3	57	4.753870331639	6
3	57	4.753870331639	7
3	57	4.753870331639	8
3	87	6.265129404407	9
3	87	6.265129404407	10
3	87	6.265129404407	11
3	102	8.035028367231	12
3	102	8.035028367231	13
3	102	8.035028367231	14
3	125	9.52147604468	15
3	125	9.52147604468	16
3	125	9.52147604468	17
3	155	11.495295197188	18
3	155	11.495295197188	19
3	155	11.495295197188	20
3	174	13.376272338343	21
3	174	13.376272338343	22
3	174	13.376272338343	23
3	196	15.029501179069	24
3	196	15.029501179069	25
3	196	15.029501179069	26
3	218	16.838017035716	27
3	218	16.838017035716	28
3	218	16.838017035716	29
3	241	18.388990930571	30
3	241	18.388990930571	31
3	241	18.388990930571	32
3	264	20.26464608916	33
3	264	20.26464608916	34
3	264	20.26464608916	35
3	286	21.558622391561	36
3	286	21.558622391561	37
3	286	21.558622391561	38
3	317	22.934051569172	39
3	317	22.934051569172	40
3	317	22.934051569172	41
3	333	23.934881063621	42
3	333	23.934881063621	43
3	333	23.934881063621	44
3	355	25.366254968732	45
3	355	25.366254968732	46
3	355	25.366254968732	47
3	379	26.817660603366	48
3	379	26.817660603366	49
3	379	26.817660603366	50
3	401	28.127470289761	51
3	401	28.127470289761	52
3	401	28.127470289761	53
3	424	29.681287798201	54
3	424	29.681287798201	55
3	424	29.681287798201	56
3	448	31.351840148365	57
3	448	31.351840148365	58
3	448	31.351840148365	59
3	470	33.178952219904	60
3	470	33.178952219904	61
3	470	33.178952219904	62
3	494	34.222242271395	63
3	494	34.222242271395	64
3	494	34.222242271395	65
3	517	35.696685321767	66
3	517	35.696685321767	67
3	517	35.696685321767	68
3	550	39.013038863073	69
3	550	39.013038863073	70
3	550	39.013038863073	71
3	565	40.992250552167	72
3	565	40.992250552167	73
3	565	40.992250552167	74
3	588	42.321779117838	75
3	588	42.321779117838	76
3	588	42.321779117838	77
3	616	45.896258958554	78
3	616	45.896258958554	79
3	616	45.896258958554	80
3	638	47.373543378387	81
3	638	47.373543378387	82
3	638	47.373543378387	83
3	660	48.860334992236	84
3	660	48.860334992236	85
3	660	48.860334992236	86
3	681	50.604714171813	87
3	681	50.604714171813	88
3	681	50.604714171813	89
3	713	52.09468284258	90
3	713	52.09468284258	91
3	713	52.09468284258	92
3	726	54.052566265955	93
3	726	54.052566265955	94
3	726	54.052566265955	95
3	747	55.943931936885	96
3	747	55.943931936885	97
3	747	55.943931936885	98
3	771	57.654094240443	99
3	771	57.654094240443	100
3	771	57.654094240443	101
3	794	58.735201124959	102
3	794	58.735201124959	103
3	794	58.735201124959	104
3	814	59.998824188545	105
3	814	59.998824188545	106
3	814	59.998824188545	107
3	848	61.564696617095	108
3	848	61.564696617095	109
3	848	61.564696617095	110
3	863	62.629786622797	111
3	863	62.629786622797	112
3	863	62.629786622797	113
3	884	64.339026905267	114
3	884	64.339026905267	115
3	884	64.339026905267	116
3	905	66.184774001148	117
3	905	66.184774001148	118
3	905	66.184774001148	119
3	928	67.850150642582	120
3	928	67.850150642582	121
3	928	67.850150642582	122
3	951	69.524506220698	123
3	951	69.524506220698	124
3	951	69.524506220698	125
3	975	70.943280379305	126
3	975	70.943280379305	127
3	975	70.943280379305	128
3	997	72.375272107159	129
3	997	72.375272107159	130
3	997	72.375272107159	131
3	1023	73.786284043824	132
3	1023	73.786284043824	133
3	1023	73.786284043824	134
3	1043	75.171898816171	135
3	1043	75.171898816171	136
3	1043	75.171898816171	137
3	1074	76.514907488624	138
3	1074	76.514907488624	139
3	1074	76.514907488624	140
3	1090	78.304026031925	141
3	1090	78.304026031925	142
3	1090	78.304026031925	143
3	1115	81.101241920799	144
3	1115	81.101241920799	145
3	1115	81.101241920799	146
3	1138	82.520846197818	147
3	1138	82.520846197818	148
3	1138	82.520846197818	149
3	1160	83.957713205175	150
3	1160	83.957713205175	151
3	1160	83.957713205175	152
3	1184	85.429697355655	153
3	1184	85.429697355655	154
3	1184	85.429697355655	155
3	1206	86.881674564214	156
3	1206	86.881674564214	157
3	1206	86.881674564214	158
3	1235	88.497681278365	159
3	1235	88.497681278365	160
3	1235	88.497681278365	161
3	1260	90.166647059526	162
3	1260	90.166647059526	163
3	1260	90.166647059526	164
3	1275	92.038852379057	165
3	1275	92.038852379057	166
3	1275	92.038852379057	167
3	1306	93.168990494383	168
3	1306	93.168990494383	169
3	1306	93.168990494383	170
3	1326	97.63698057677	171
3	1326	97.63698057677	172
3	1326	97.63698057677	173
3	1348	98.733059053162	174
3	1348	98.733059053162	175
3	1348	98.733059053162	176
3	1371	100.725153075055	177
3	1371	100.725153075055	178
3	1371	100.725153075055	179
3	1396	102.700433520934	180
3	1396	102.700433520934	181
3	1396	102.700433520934	182
3	1417	104.216890846994	183
3	1417	104.216890846994	184
3	1417	104.216890846994	185
3	1440	105.684158715985	186
3	1440	105.684158715985	187
3	1440	105.684158715985	188
3	1463	106.932573385267	189
3	1463	106.932573385267	190
3	1463	106.932573385267	191
3	1494	108.920350944221	192
3	1494	108.920350944221	193
3	1494	108.920350944221	194
3	1509	110.192816449977	195
3	1509	110.192816449977	196
3	1509	110.192816449977	197
3	1534	112.837170423441	198
3	1534	112.837170423441	199
3	1534	112.837170423441	200
3	1558	114.489629506768	201
3	1558	114.489629506768	202
3	1558	114.489629506768	203
3	1580	116.174982456671	204
3	1580	116.174982456671	205
3	1580	116.174982456671	206
3	1605	117.878494633969	207
3	1605	117.878494633969	208
3	1605	117.878494633969	209
3	1628	119.355235776843	210
3	1628	119.355235776843	211
3	1628	119.355235776843	212
3	1650	120.573606587191	213
3	1650	120.573606587191	214
3	1650	120.573606587191	215
3	1673	122.020541457755	216
3	1673	122.020541457755	217
3	1673	122.020541457755	218
3	1698	124.958756081361	219
3	1698	124.958756081361	220
3	1698	124.958756081361	221
3	1720	125.968382648289	222
3	1720	125.968382648289	223
3	1720	125.968382648289	224
3	1748	127.344503419298	225
3	1748	127.344503419298	226
3	1748	127.344503419298	227
3	1768	128.35948521595	228
3	1768	128.35948521595	229
3	1768	128.35948521595	230
3	1798	130.12259975716	231
3	1798	130.12259975716	232
3	1798	130.12259975716	233
3	1812	131.375253920244	234
3	1812	131.375253920244	235
3	1812	131.375253920244	236
3	1847	132.642573036943	237
3	1847	132.642573036943	238
3	1847	132.642573036943	239
3	1859	134.494544647818	240
3	1859	134.494544647818	241
3	1859	134.494544647818	242
3	1883	136.158205627611	243
3	1883	136.158205627611	244
3	1883	136.158205627611	245
3	1912	138.101806913949	246
3	1912	138.101806913949	247
3	1912	138.101806913949	248
3	1924	139.915575670679	249
3	1924	139.915575670679	250
3	1924	139.915575670679	251
3	1954	141.34473283303	252
3	1954	141.34473283303	253
3	1954	141.34473283303	254
3	1965	142.644386161339	255
3	1965	142.644386161339	256
3	1965	142.644386161339	257
3	1988	144.254777694749	258
3	1988	144.254777694749	259
3	1988	144.254777694749	260
3	2012	145.616619680496	261
3	2012	145.616619680496	262
3	2012	145.616619680496	263
3	2036	146.784836442675	264
3	2036	146.784836442675	265
3	2036	146.784836442675	266
3	2058	148.424932837171	267
3	2058	148.424932837171	268
3	2058	148.424932837171	269
3	2081	149.727871079031	270
3	2081	149.727871079031	271
3	2081	149.727871079031	272
3	2104	151.14477809088	273
3	2104	151.14477809088	274
3	2104	151.14477809088	275
3	2126	152.805395549301	276
3	2126	152.805395549301	277
3	2126	152.805395549301	278
3	2149	153.841549086279	279
3	2149	153.841549086279	280
3	2149	153.841549086279	281
3	2172	155.684511399521	282
3	2172	155.684511399521	283
3	2172	155.684511399521	284
3	2195	156.763462063393	285
3	2195	156.763462063393	286
3	2195	156.763462063393	287
3	2227	158.601425533212	288
3	2227	158.601425533212	289
3	2227	158.601425533212	290
3	2253	160.195563844223	291
3	2253	160.195563844223	292
3	2253	160.195563844223	293
3	2265	161.184020296226	294
3	2265	161.184020296226	295
3	2265	161.184020296226	296
3	2287	163.145741354252	297
3	2287	163.145741354252	298
3	2287	163.145741354252	299
3	2319	164.312429062215	300
3	2319	164.312429062215	301
3	2319	164.312429062215	302
3	2333	165.881954614909	303
3	2333	165.881954614909	304
3	2333	165.881954614909	305
3	2356	167.413400183877	306
3	2356	167.413400183877	307
3	2356	167.413400183877	308
3	2381	170.244404716065	309
3	2381	170.244404716065	310
3	2381	170.244404716065	311
3	2412	171.754737605895	312
3	2412	171.754737605895	313
3	2412	171.754737605895	314
3	2428	173.746120937348	315
3	2428	173.746120937348	316
3	2428	173.746120937348	317
3	2454	175.306765286025	318
3	2454	175.306765286025	319
3	2454	175.306765286025	320
3	2474	176.376060806154	321
3	2474	176.376060806154	322
3	2474	176.376060806154	323
3	2505	178.119018130047	324
3	2505	178.119018130047	325
3	2505	178.119018130047	326
3	2519	179.97187642677	327
3	2519	179.97187642677	328
3	2519	179.97187642677	329
3	2544	181.850570728473	330
3	2544	181.850570728473	331
3	2544	181.850570728473	332
3	2565	183.254049762246	333
3	2565	183.254049762246	334
3	2565	183.254049762246	335
3	2593	184.858391908648	336
3	2593	184.858391908648	337
3	2593	184.858391908648	338
3	2616	186.771961401019	339
3	2616	186.771961401019	340
3	2616	186.771961401019	341
3	2632	188.556707301076	342
3	2632	188.556707301076	343
3	2632	188.556707301076	344
3	2656	190.054643313684	345
3	2656	190.054643313684	346
3	2656	190.054643313684	347
3	2679	191.676771279666	348
3	2679	191.676771279666	349
3	2679	191.676771279666	350
3	2700	193.637384553313	351
3	2700	193.637384553313	352
3	2700	193.637384553313	353
3	2725	196.311981950669	354
3	2725	196.311981950669	355
3	2725	196.311981950669	356
3	2749	197.833534875489	357
3	2749	197.833534875489	358
3	2749	197.833534875489	359
3	2775	198.861829883232	360
3	2775	198.861829883232	361
3	2775	198.861829883232	362
3	2796	200.448139801594	363
3	2796	200.448139801594	364
3	2796	200.448139801594	365
3	2817	201.489145283939	366
3	2817	201.489145283939	367
3	2817	201.489145283939	368
3	2841	203.028246529004	369
3	2841	203.028246529004	370
3	2841	203.028246529004	371
3	2863	204.086419073714	372
3	2863	204.086419073714	373
3	2863	204.086419073714	374
3	2895	205.377855122131	375
3	2895	205.377855122131	376
3	2895	205.377855122131	377
3	2911	208.442144375708	378
3	2911	208.442144375708	379
3	2911	208.442144375708	380
3	2940	210.345648320953	381
3	2940	210.345648320953	382
3	2940	210.345648320953	383
3	2961	212.248852990668	384
3	2961	212.248852990668	385
3	2961	212.248852990668	386
3	2982	213.618574152795	387
3	2982	213.618574152795	388
3	2982	213.618574152795	389
3	3004	214.963589543162	390
3	3004	214.963589543162	391
3	3004	214.963589543162	392
3	3028	216.479847895841	393
3	3028	216.479847895841	394
3	3028	216.479847895841	395
3	3058	217.996409627544	396
3	3058	217.996409627544	397
3	3058	217.996409627544	398
3	3074	219.914990560859	399
3	3074	219.914990560859	400
3	3074	219.914990560859	401
3	3096	221.81409803449	402
3	3096	221.81409803449	403
3	3096	221.81409803449	404
3	3120	223.636050556397	405
3	3120	223.636050556397	406
3	3120	223.636050556397	407
3	3141	224.675762017489	408
3	3141	224.675762017489	409
3	3141	224.675762017489	410
3	3176	225.920357217717	411
3	3176	225.920357217717	412
3	3176	225.920357217717	413
3	3187	227.402661308421	414
3	3187	227.402661308421	415
3	3187	227.402661308421	416
3	3212	229.230962394982	417
3	3212	229.230962394982	418
3	3212	229.230962394982	419
3	3234	230.945948800995	420
3	3234	230.945948800995	421
3	3234	230.945948800995	422
3	3265	232.494611556913	423
3	3265	232.494611556913	424
3	3265	232.494611556913	425
3	3287	234.180318254221	426
3	3287	234.180318254221	427
3	3287	234.180318254221	428
3	3304	236.029889776871	429
3	3304	236.029889776871	430
3	3304	236.029889776871	431
3	3325	237.437354642402	432
3	3325	237.437354642402	433
3	3325	237.437354642402	434
3	3356	239.329430791914	435
3	3356	239.329430791914	436
3	3356	239.329430791914	437
4	12	1.332888171871	0
4	12	1.332888171871	1
4	12	1.332888171871	2
4	12	1.332888171871	3
4	33	3.23449155303	4
4	33	3.23449155303	5
4	33	3.23449155303	6
4	33	3.23449155303	7
4	56	4.752512870319	8
4	56	4.752512870319	9
4	56	4.752512870319	10
4	56	4.752512870319	11
4	79	6.24761328618	12
4	79	6.24761328618	13
4	79	6.24761328618	14
4	79	6.24761328618	15
4	104	8.042028944848	16
4	104	8.042028944848	17
4	104	8.042028944848	18
4	104	8.042028944848	19
4	126	9.527177319113	20
4	126	9.527177319113	21
4	126	9.527177319113	22
4	126	9.527177319113	23
4	148	11.482348385438	24
4	148	11.482348385438	25
4	148	11.482348385438	26
4	148	11.482348385438	27
4	175	13.383353698737	28
4	175	13.383353698737	29
4	175	13.383353698737	30
4	175	13.383353698737	31
4	195	15.028993225189	32
4	195	15.028993225189	33
4	195	15.028993225189	34
4	195	15.028993225189	35
4	219	16.838472830537	36
4	219	16.838472830537	37
4	219	16.838472830537	38
4	219	16.838472830537	39
4	240	18.38777130668	40
4	240	18.38777130668	41
4	240	18.38777130668	42
4	240	18.38777130668	43
4	270	20.276928320035	44
4	270	20.276928320035	45
4	270	20.276928320035	46
4	270	20.276928320035	47
4	291	21.576584462054	48
4	291	21.576584462054	49
4	291	21.576584462054	50
4	291	21.576584462054	51
4	312	22.918072713295	52
4	312	22.918072713295	53
4	312	22.918072713295	54
4	312	22.918072713295	55
4	340	23.959656214614	56
4	340	23.959656214614	57
4	340	23.959656214614	58
4	340	23.959656214614	59
4	356	25.370815114159	60
4	356	25.370815114159	61
4	356	25.370815114159	62
4	356	25.370815114159	63
4	378	26.817490201736	64
4	378	26.817490201736	65
4	378	26.817490201736	66
4	378	26.817490201736	67
4	405	28.142215398449	68
4	405	28.142215398449	69
4	405	28.142215398449	70
4	405	28.142215398449	71
4	431	29.696808370962	72
4	431	29.696808370962	73
4	431	29.696808370962	74
4	431	29.696808370962	75
4	447	31.342976524648	76
4	447	31.342976524648	77
4	447	31.342976524648	78
4	447	31.342976524648	79
4	471	33.183443879248	80
4	471	33.183443879248	81
4	471	33.183443879248	82
4	471	33.183443879248	83
4	495	34.222524170581	84
4	495	34.222524170581	85
4	495	34.222524170581	86
4	495	34.222524170581	87
4	516	35.695293176905	88
4	516	35.695293176905	89
4	516	35.695293176905	90
4	516	35.695293176905	91
4	544	38.985128516244	92
4	544	38.985128516244	93
4	544	38.985128516244	94
4	544	38.985128516244	95
4	564	40.98466479214	96
4	564	40.98466479214	97
4	564	40.98466479214	98
4	564	40.98466479214	99
4	594	42.332478632393	100
4	594	42.332478632393	101
4	594	42.332478632393	102
4	594	42.332478632393	103
4	613	45.887843116626	104
4	613	45.887843116626	105
4	613	45.887843116626	106
4	613	45.887843116626	107
4	643	47.385415545408	108
4	643	47.385415545408	109
4	643	47.385415545408	110
4	643	47.385415545408	111
4	658	48.85797565628	112
4	658	48.85797565628	113
4	658	48.85797565628	114
4	658	48.85797565628	115
4	682	50.612916569546	116
4	682	50.612916569546	117
4	682	50.612916569546	118
4	682	50.612916569546	119
4	704	52.0720514043	120
4	704	52.0720514043	121
4	704	52.0720514043	122
4	704	52.0720514043	123
4	725	54.048254356	124
4	725	54.048254356	125
4	725	54.048254356	126
4	725	54.048254356	127
4	749	55.953549524888	128
4	749	55.953549524888	129
4	749	55.953549524888	130
4	749	55.953549524888	131
4	770	57.653334941934	132
4	770	57.653334941934	133
4	770	57.653334941934	134
4	770	57.653334941934	135
4	793	58.732748510159	136
4	793	58.732748510159	137
4	793	58.732748510159	138
4	793	58.732748510159	139
4	820	60.019872997503	140
4	820	60.019872997503	141
4	820	60.019872997503	142
4	820	60.019872997503	143
4	839	61.515494265283	144
4	839	61.515494265283	145
4	839	61.515494265283	146
4	839	61.515494265283	147
4	862	62.624435724389	148
4	862	62.624435724389	149
4	862	62.624435724389	150
4	862	62.624435724389	151
4	883	64.333292171875	152
4	883	64.333292171875	153
4	883	64.333292171875	154
4	883	64.333292171875	155
4	910	66.198600094315	156
4	910	66.198600094315	157
4	910	66.198600094315	158
4	910	66.198600094315	159
4	933	67.871260623182	160
4	933	67.871260623182	161
4	933	67.871260623182	162
4	933	67.871260623182	163
4	952	69.52677254569	164
4	952	69.52677254569	165
4	952	69.52677254569	166
4	952	69.52677254569	167
4	982	70.96138767042	168
4	982	70.96138767042	169
4	982	70.96138767042	170
4	982	70.96138767042	171
4	1005	72.390105629665	172
4	1005	72.390105629665	173
4	1005	72.390105629665	174
4	1005	72.390105629665	175
4	1024	73.787255826503	176
4	1024	73.787255826503	177
4	1024	73.787255826503	178
4	1024	73.787255826503	179
4	1045	75.173481639519	180
4	1045	75.173481639519	181
4	1045	75.173481639519	182
4	1045	75.173481639519	183
4	1069	76.50446566131	184
4	1069	76.50446566131	185
4	1069	76.50446566131	186
4	1069	76.50446566131	187
4	1091	78.310844448063	188
4	1091	78.310844448063	189
4	1091	78.310844448063	190
4	1091	78.310844448063	191
4	1114	81.097839014653	192
4	1114	81.097839014653	193
4	1114	81.097839014653	194
4	1114	81.097839014653	195
4	1137	82.516121287885	196
4	1137	82.516121287885	197
4	1137	82.516121287885	198
4	1137	82.516121287885	199
4	1161	83.958953421144	200
4	1161	83.958953421144	201
4	1161	83.958953421144	202
4	1161	83.958953421144	203
4	1185	85.433690543917	204
4	1185	85.433690543917	205
4	1185	85.433690543917	206
4	1185	85.433690543917	207
4	1208	86.887901759146	208
4	1208	86.887901759146	209
4	1208	86.887901759146	210
4	1208	86.887901759146	211
4	1229	88.480373065457	212
4	1229	88.480373065457	213
4	1229	88.480373065457	214
4	1229	88.480373065457	215
4	1252	90.123281351897	216
4	1252	90.123281351897	217
4	1252	90.123281351897	218
4	1252	90.123281351897	219
4	1277	92.043574518811	220
4	1277	92.043574518811	221
4	1277	92.043574518811	222
4	1277	92.043574518811	223
4	1301	93.156416720678	224
4	1301	93.156416720678	225
4	1301	93.156416720678	226
4	1301	93.156416720678	227
4	1325	97.632039179945	228
4	1325	97.632039179945	229
4	1325	97.632039179945	230
4	1325	97.632039179945	231
4	1355	98.760387200217	232
4	1355	98.760387200217	233
4	1355	98.760387200217	234
4	1355	98.760387200217	235
4	1373	100.732024602001	236
4	1373	100.732024602001	237
4	1373	100.732024602001	238
4	1373	100.732024602001	239
4	1395	102.69316968295	240
4	1395	102.69316968295	241
4	1395	102.69316968295	242
4	1395	102.69316968295	243
4	1422	104.23388797278	244
4	1422	104.23388797278	245
4	1422	104.23388797278	246
4	1422	104.23388797278	247
4	1445	105.70040260885	248
4	1445	105.70040260885	249
4	1445	105.70040260885	250
4	1445	105.70040260885	251
4	1465	106.938655000778	252
4	1465	106.938655000778	253
4	1465	106.938655000778	254
4	1465	106.938655000778	255
4	1487	108.895827145977	256
4	1487	108.895827145977	257
4	1487	108.895827145977	258
4	1487	108.895827145977	259
4	1511	110.19907974474	260
4	1511	110.19907974474	261
4	1511	110.19907974474	262
4	1511	110.19907974474	263
4	1545	112.875530284959	264
4	1545	112.875530284959	265
4	1545	112.875530284959	266
4	1545	112.875530284959	267
4	1561	114.497339254175	268
4	1561	114.497339254175	269
4	1561	114.497339254175	270
4	1561	114.497339254175	271
4	1581	116.176668099353	272
4	1581	116.176668099353	273
4	1581	116.176668099353	274
4	1581	116.176668099353	275
4	1603	117.874997417838	276
4	1603	117.874997417838	277
4	1603	117.874997417838	278
4	1603	117.874997417838	279
4	1627	119.353414951976	280
4	1627	119.353414951976	281
4	1627	119.353414951976	282
4	1627	119.353414951976	283
4	1656	120.607238229756	284
4	1656	120.607238229756	285
4	1656	120.607238229756	286
4	1656	120.607238229756	287
4	1674	122.025401059595	288
4	1674	122.025401059595	289
4	1674	122.025401059595	290
4	1674	122.025401059595	291
4	1704	124.973862439584	292
4	1704	124.973862439584	293
4	1704	124.973862439584	294
4	1704	124.973862439584	295
4	1728	125.984356272962	296
4	1728	125.984356272962	297
4	1728	125.984356272962	298
4	1728	125.984356272962	299
4	1743	127.332264778555	300
4	1743	127.332264778555	301
4	1743	127.332264778555	302
4	1743	127.332264778555	303
4	1767	128.349570031615	304
4	1767	128.349570031615	305
4	1767	128.349570031615	306
4	1767	128.349570031615	307
4	1792	130.102428643262	308
4	1792	130.102428643262	309
4	1792	130.102428643262	310
4	1792	130.102428643262	311
4	1817	131.386736585738	312
4	1817	131.386736585738	313
4	1817	131.386736585738	314
4	1817	131.386736585738	315
4	1836	132.596805565975	316
4	1836	132.596805565975	317
4	1836	132.596805565975	318
4	1836	132.596805565975	319
4	1860	134.497099405026	320
4	1860	134.497099405026	321
4	1860	134.497099405026	322
4	1860	134.497099405026	323
4	1882	136.158024099192	324
4	1882	136.158024099192	325
4	1882	136.158024099192	326
4	1882	136.158024099192	327
4	1905	138.083416163977	328
4	1905	138.083416163977	329
4	1905	138.083416163977	330
4	1905	138.083416163977	331
4	1925	139.916035691137	332
4	1925	139.916035691137	333
4	1925	139.916035691137	334
4	1925	139.916035691137	335
4	1946	141.318715051578	336
4	1946	141.318715051578	337
4	1946	141.318715051578	338
4	1946	141.318715051578	339
4	1976	142.689070503268	340
4	1976	142.689070503268	341
4	1976	142.689070503268	342
4	1976	142.689070503268	343
4	1999	144.296789967822	344
4	1999	144.296789967822	345
4	1999	144.296789967822	346
4	1999	144.296789967822	347
4	2013	145.621755380917	348
4	2013	145.621755380917	349
4	2013	145.621755380917	350
4	2013	145.621755380917	351
4	2034	146.778904706785	352
4	2034	146.778904706785	353
4	2034	146.778904706785	354
4	2034	146.778904706785	355
4	2057	148.420658391411	356
4	2057	148.420658391411	357
4	2057	148.420658391411	358
4	2057	148.420658391411	359
4	2080	149.727456132056	360
4	2080	149.727456132056	361
4	2080	149.727456132056	362
4	2080	149.727456132056	363
4	2110	151.165883111613	364
4	2110	151.165883111613	365
4	2110	151.165883111613	366
4	2110	151.165883111613	367
4	2131	152.820352883571	368
4	2131	152.820352883571	369
4	2131	152.820352883571	370
4	2131	152.820352883571	371
4	2150	153.846297460438	372
4	2150	153.846297460438	373
4	2150	153.846297460438	374
4	2150	153.846297460438	375
4	2176	155.711968268033	376
4	2176	155.711968268033	377
4	2176	155.711968268033	378
4	2176	155.711968268033	379
4	2196	156.767726777536	380
4	2196	156.767726777536	381
4	2196	156.767726777536	382
4	2196	156.767726777536	383
4	2218	158.565665875434	384
4	2218	158.565665875434	385
4	2218	158.565665875434	386
4	2218	158.565665875434	387
4	2241	160.160528353814	388
4	2241	160.160528353814	389
4	2241	160.160528353814	390
4	2241	160.160528353814	391
4	2266	161.185601253657	392
4	2266	161.185601253657	393
4	2266	161.185601253657	394
4	2266	161.185601253657	395
4	2288	163.15090242477	396
4	2288	163.15090242477	397
4	2288	163.15090242477	398
4	2288	163.15090242477	399
4	2310	164.292175584354	400
4	2310	164.292175584354	401
4	2310	164.292175584354	402
4	2310	164.292175584354	403
4	2334	165.885006911108	404
4	2334	165.885006911108	405
4	2334	165.885006911108	406
4	2334	165.885006911108	407
4	2357	167.419275550641	408
4	2357	167.419275550641	409
4	2357	167.419275550641	410
4	2357	167.419275550641	411
4	2382	170.245364857815	412
4	2382	170.245364857815	413
4	2382	170.245364857815	414
4	2382	170.245364857815	415
4	2405	171.74139746125	416
4	2405	171.74139746125	417
4	2405	171.74139746125	418
4	2405	171.74139746125	419
4	2427	173.73856256936	420
4	2427	173.73856256936	421
4	2427	173.73856256936	422
4	2427	173.73856256936	423
4	2451	175.30478733349	424
4	2451	175.30478733349	425
4	2451	175.30478733349	426
4	2451	175.30478733349	427
4	2480	176.390388712757	428
4	2480	176.390388712757	429
4	2480	176.390388712757	430
4	2480	176.390388712757	431
4	2496	178.103203244775	432
4	2496	178.103203244775	433
4	2496	178.103203244775	434
4	2496	178.103203244775	435
4	2520	179.977563676281	436
4	2520	179.977563676281	437
4	2520	179.977563676281	438
4	2520	179.977563676281	439
4	2542	181.845156503991	440
4	2542	181.845156503991	441
4	2542	181.845156503991	442
4	2542	181.845156503991	443
4	2572	183.269438124979	444
4	2572	183.269438124979	445
4	2572	183.269438124979	446
4	2572	183.269438124979	447
4	2588	184.847440078272	448
4	2588	184.847440078272	449
4	2588	184.847440078272	450
4	2588	184.847440078272	451
4	2609	186.757518092648	452
4	2609	186.757518092648	453
4	2609	186.757518092648	454
4	2609	186.757518092648	455
4	2631	188.556526969022	456
4	2631	188.556526969022	457
4	2631	188.556526969022	458
4	2631	188.556526969022	459
4	2655	190.052399381011	460
4	2655	190.052399381011	461
4	2655	190.052399381011	462
4	2655	190.052399381011	463
4	2677	191.670936712139	464
4	2677	191.670936712139	465
4	2677	191.670936712139	466
4	2677	191.670936712139	467
4	2705	193.648480178517	468
4	2705	193.648480178517	469
4	2705	193.648480178517	470
4	2705	193.648480178517	471
4	2727	196.318084526521	472
4	2727	196.318084526521	473
4	2727	196.318084526521	474
4	2727	196.318084526521	475
4	2748	197.83119158717	476
4	2748	197.83119158717	477
4	2748	197.83119158717	478
4	2748	197.83119158717	479
4	2774	198.861196390067	480
4	2774	198.861196390067	481
4	2774	198.861196390067	482
4	2774	198.861196390067	483
4	2795	200.442496094992	484
4	2795	200.442496094992	485
4	2795	200.442496094992	486
4	2795	200.442496094992	487
4	2818	201.494470204175	488
4	2818	201.494470204175	489
4	2818	201.494470204175	490
4	2818	201.494470204175	491
4	2840	203.018457471804	492
4	2840	203.018457471804	493
4	2840	203.018457471804	494
4	2840	203.018457471804	495
4	2865	204.09354984931	496
4	2865	204.09354984931	497
4	2865	204.09354984931	498
4	2865	204.09354984931	499
4	2889	205.345645410813	500
4	2889	205.345645410813	501
4	2889	205.345645410813	502
4	2889	205.345645410813	503
4	2915	208.469481419429	504
4	2915	208.469481419429	505
4	2915	208.469481419429	506
4	2915	208.469481419429	507
4	2934	210.334517384276	508
4	2934	210.334517384276	509
4	2934	210.334517384276	510
4	2934	210.334517384276	511
4	2960	212.243242672495	512
4	2960	212.243242672495	513
4	2960	212.243242672495	514
4	2960	212.243242672495	515
4	2981	213.616064747831	516
4	2981	213.616064747831	517
4	2981	213.616064747831	518
4	2981	213.616064747831	519
4	3003	214.962702885273	520
4	3003	214.962702885273	521
4	3003	214.962702885273	522
4	3003	214.962702885273	523
4	3026	216.471461546119	524
4	3026	216.471461546119	525
4	3026	216.471461546119	526
4	3026	216.471461546119	527
4	3049	217.983605537471	528
4	3049	217.983605537471	529
4	3049	217.983605537471	530
4	3049	217.983605537471	531
4	3072	219.910215077962	532
4	3072	219.910215077962	533
4	3072	219.910215077962	534
4	3072	219.910215077962	535
4	3095	221.808291579999	536
4	3095	221.808291579999	537
4	3095	221.808291579999	538
4	3095	221.808291579999	539
4	3118	223.627414360203	540
4	3118	223.627414360203	541
4	3118	223.627414360203	542
4	3118	223.627414360203	543
4	3142	224.67646479814	544
4	3142	224.67646479814	545
4	3142	224.67646479814	546
4	3142	224.67646479814	547
4	3164	225.882918887086	548
4	3164	225.882918887086	549
4	3164	225.882918887086	550
4	3164	225.882918887086	551
4	3189	227.40410484749	552
4	3189	227.40410484749	553
4	3189	227.40410484749	554
4	3189	227.40410484749	555
4	3210	229.226429120831	556
4	3210	229.226429120831	557
4	3210	229.226429120831	558
4	3210	229.226429120831	559
4	3235	230.954635830733	560
4	3235	230.954635830733	561
4	3235	230.954635830733	562
4	3235	230.954635830733	563
4	3257	232.470356635511	564
4	3257	232.470356635511	565
4	3257	232.470356635511	566
4	3257	232.470356635511	567
4	3280	234.167695611016	568
4	3280	234.167695611016	569
4	3280	234.167695611016	570
4	3280	234.167695611016	571
4	3302	236.023338409956	572
4	3302	236.023338409956	573
4	3302	236.023338409956	574
4	3302	236.023338409956	575
4	3326	237.440886166678	576
4	3326	237.440886166678	577
4	3326	237.440886166678	578
4	3326	237.440886166678	579
4	3348	239.314099148283	580
4	3348	239.314099148283	581
4	3348	239.314099148283	582
4	3348	239.314099148283	583
5	22	1.344548070588	0
5	22	1.344548070588	1
5	22	1.344548070588	2
5	45	3.250637095335	3
5	45	3.250637095335	4
5	45	3.250637095335	5
5	66	4.764766119945	6
5	66	4.764766119945	7
5	66	4.764766119945	8
5	91	6.307619579268	9
5	91	6.307619579268	10
5	91	6.307619579268	11
5	110	8.05024175834	12
5	110	8.05024175834	13
5	110	8.05024175834	14
5	130	9.535375026967	15
5	130	9.535375026967	16
5	130	9.535375026967	17
5	154	11.492479413499	18
5	154	11.492479413499	19
5	154	11.492479413499	20
5	179	13.39108003916	21
5	179	13.39108003916	22
5	179	13.39108003916	23
5	206	15.040431400175	24
5	206	15.040431400175	25
5	206	15.040431400175	26
5	229	16.88601889665	27
5	229	16.88601889665	28
5	229	16.88601889665	29
5	250	18.399836963251	30
5	250	18.399836963251	31
5	250	18.399836963251	32
5	275	20.295025908771	33
5	275	20.295025908771	34
5	275	20.295025908771	35
5	294	21.584661201084	36
5	294	21.584661201084	37
5	294	21.584661201084	38
5	321	22.947203526693	39
5	321	22.947203526693	40
5	321	22.947203526693	41
5	339	23.951966057524	42
5	339	23.951966057524	43
5	339	23.951966057524	44
5	365	25.387650163293	45
5	365	25.387650163293	46
5	365	25.387650163293	47
5	387	26.838336342595	48
5	387	26.838336342595	49
5	387	26.838336342595	50
5	411	28.16050222962	51
5	411	28.16050222962	52
5	411	28.16050222962	53
5	436	29.710105363083	54
5	436	29.710105363083	55
5	436	29.710105363083	56
5	459	31.389472868278	57
5	459	31.389472868278	58
5	459	31.389472868278	59
5	479	33.193865327908	60
5	479	33.193865327908	61
5	479	33.193865327908	62
5	505	34.234173807755	63
5	505	34.234173807755	64
5	505	34.234173807755	65
5	523	35.706207524801	66
5	523	35.706207524801	67
5	523	35.706207524801	68
5	549	39.004517207287	69
5	549	39.004517207287	70
5	549	39.004517207287	71
5	573	41.004907412002	72
5	573	41.004907412002	73
5	573	41.004907412002	74
5	595	42.333322235779	75
5	595	42.333322235779	76
5	595	42.333322235779	77
5	624	45.921204137962	78
5	624	45.921204137962	79
5	624	45.921204137962	80
5	642	47.384491629146	81
5	642	47.384491629146	82
5	642	47.384491629146	83
5	667	48.869006624779	84
5	667	48.869006624779	85
5	667	48.869006624779	86
5	691	50.63234910901	87
5	691	50.63234910901	88
5	691	50.63234910901	89
5	709	52.08258429559	90
5	709	52.08258429559	91
5	709	52.08258429559	92
5	736	54.068161878743	93
5	736	54.068161878743	94
5	736	54.068161878743	95
5	759	55.980325713581	96
5	759	55.980325713581	97
5	759	55.980325713581	98
5	780	57.666435935229	99
5	780	57.666435935229	100
5	780	57.666435935229	101
5	802	58.753476083208	102
5	802	58.753476083208	103
5	802	58.753476083208	104
5	825	60.043663604499	105
5	825	60.043663604499	106
5	825	60.043663604499	107
5	844	61.527746259947	108
5	844	61.527746259947	109
5	844	61.527746259947	110
5	868	62.636724099575	111
5	868	62.636724099575	112
5	868	62.636724099575	113
5	891	64.345623795329	114
5	891	64.345623795329	115
5	891	64.345623795329	116
5	917	66.21097034845	117
5	917	66.21097034845	118
5	917	66.21097034845	119
5	932	67.861834066066	120
5	932	67.861834066066	121
5	932	67.861834066066	122
5	957	69.53474858099	123
5	957	69.53474858099	124
5	957	69.53474858099	125
5	981	70.954213054155	126
5	981	70.954213054155	127
5	981	70.954213054155	128
5	1004	72.389447402264	129
5	1004	72.389447402264	130
5	1004	72.389447402264	131
5	1028	73.797034785564	132
5	1028	73.797034785564	133
5	1028	73.797034785564	134
5	1055	75.19083249141	135
5	1055	75.19083249141	136
5	1055	75.19083249141	137
5	1075	76.516961729764	138
5	1075	76.516961729764	139
5	1075	76.516961729764	140
5	1097	78.317863748814	141
5	1097	78.317863748814	142
5	1097	78.317863748814	143
5	1120	81.109837209599	144
5	1120	81.109837209599	145
5	1120	81.109837209599	146
5	1147	82.538036977172	147
5	1147	82.538036977172	148
5	1147	82.538036977172	149
5	1169	83.970493415635	150
5	1169	83.970493415635	151
5	1169	83.970493415635	152
5	1195	85.467264367646	153
5	1195	85.467264367646	154
5	1195	85.467264367646	155
5	1212	86.89221648476	156
5	1212	86.89221648476	157
5	1212	86.89221648476	158
5	1241	88.529124813597	159
5	1241	88.529124813597	160
5	1241	88.529124813597	161
5	1264	90.18056852743	162
5	1264	90.18056852743	163
5	1264	90.18056852743	164
5	1287	92.079355473679	165
5	1287	92.079355473679	166
5	1287	92.079355473679	167
5	1310	93.180414837599	168
5	1310	93.180414837599	169
5	1310	93.180414837599	170
5	1334	97.653376157035	171
5	1334	97.653376157035	172
5	1334	97.653376157035	173
5	1360	98.788546491527	174
5	1360	98.788546491527	175
5	1360	98.788546491527	176
5	1383	100.745953240491	177
5	1383	100.745953240491	178
5	1383	100.745953240491	179
5	1403	102.705490096269	180
5	1403	102.705490096269	181
5	1403	102.705490096269	182
5	1421	104.227901603856	183
5	1421	104.227901603856	184
5	1421	104.227901603856	185
5	1448	105.703311109052	186
5	1448	105.703311109052	187
5	1448	105.703311109052	188
5	1475	106.96670345757	189
5	1475	106.96670345757	190
5	1475	106.96670345757	191
5	1498	108.951235198417	192
5	1498	108.951235198417	193
5	1498	108.951235198417	194
5	1517	110.207164524523	195
5	1517	110.207164524523	196
5	1517	110.207164524523	197
5	1539	112.853322867016	198
5	1539	112.853322867016	199
5	1539	112.853322867016	200
5	1569	114.547296882422	201
5	1569	114.547296882422	202
5	1569	114.547296882422	203
5	1590	116.192011636379	204
5	1590	116.192011636379	205
5	1590	116.192011636379	206
5	1615	117.896662261594	207
5	1615	117.896662261594	208
5	1615	117.896662261594	209
5	1638	119.392402058229	210
5	1638	119.392402058229	211
5	1638	119.392402058229	212
5	1661	120.628503070692	213
5	1661	120.628503070692	214
5	1661	120.628503070692	215
5	1680	122.034720423142	216
5	1680	122.034720423142	217
5	1680	122.034720423142	218
5	1705	124.983573101196	219
5	1705	124.983573101196	220
5	1705	124.983573101196	221
5	1727	125.983107463044	222
5	1727	125.983107463044	223
5	1727	125.983107463044	224
5	1750	127.354481088018	225
5	1750	127.354481088018	226
5	1750	127.354481088018	227
5	1775	128.364107263872	228
5	1775	128.364107263872	229
5	1775	128.364107263872	230
5	1797	130.114150714937	231
5	1797	130.114150714937	232
5	1797	130.114150714937	233
5	1824	131.40661707121	234
5	1824	131.40661707121	235
5	1824	131.40661707121	236
5	1843	132.607907720907	237
5	1843	132.607907720907	238
5	1843	132.607907720907	239
5	1870	134.508691253572	240
5	1870	134.508691253572	241
5	1870	134.508691253572	242
5	1893	136.172827844271	243
5	1893	136.172827844271	244
5	1893	136.172827844271	245
5	1935	139.953230480768	246
5	1935	139.953230480768	247
5	1935	139.953230480768	248
5	1970	142.656298206209	249
5	1970	142.656298206209	250
5	1970	142.656298206209	251
5	1995	144.276184278995	252
5	1995	144.276184278995	253
5	1995	144.276184278995	254
5	2023	145.638499802435	255
5	2023	145.638499802435	256
5	2023	145.638499802435	257
5	2046	146.798432677938	258
5	2046	146.798432677938	259
5	2046	146.798432677938	260
5	2066	148.435232958121	261
5	2066	148.435232958121	262
5	2066	148.435232958121	263
5	2092	149.750338513921	264
5	2092	149.750338513921	265
5	2092	149.750338513921	266
5	2111	151.168638001261	267
5	2111	151.168638001261	268
5	2111	151.168638001261	269
5	2132	152.821869231781	270
5	2132	152.821869231781	271
5	2132	152.821869231781	272
5	2155	153.854421756166	273
5	2155	153.854421756166	274
5	2155	153.854421756166	275
5	2184	155.727062251293	276
5	2184	155.727062251293	277
5	2184	155.727062251293	278
5	2207	156.789950115214	279
5	2207	156.789950115214	280
5	2207	156.789950115214	281
5	2223	158.578897658197	282
5	2223	158.578897658197	283
5	2223	158.578897658197	284
5	2249	160.179150494393	285
5	2249	160.179150494393	286
5	2249	160.179150494393	287
5	2276	161.205218118836	288
5	2276	161.205218118836	289
5	2276	161.205218118836	290
5	2292	163.157798486099	291
5	2292	163.157798486099	292
5	2292	163.157798486099	293
5	2318	164.305876596932	294
5	2318	164.305876596932	295
5	2318	164.305876596932	296
5	2339	165.893155748335	297
5	2339	165.893155748335	298
5	2339	165.893155748335	299
5	2362	167.429065364939	300
5	2362	167.429065364939	301
5	2362	167.429065364939	302
5	2391	170.257524962143	303
5	2391	170.257524962143	304
5	2391	170.257524962143	305
5	2416	171.788029971751	306
5	2416	171.788029971751	307
5	2416	171.788029971751	308
5	2437	173.76256343791	309
5	2437	173.76256343791	310
5	2437	173.76256343791	311
5	2459	175.315619907966	312
5	2459	175.315619907966	313
5	2459	175.315619907966	314
5	2481	176.399794236896	315
5	2481	176.399794236896	316
5	2481	176.399794236896	317
5	2502	178.114403980216	318
5	2502	178.114403980216	319
5	2502	178.114403980216	320
5	2531	180.004113249128	321
5	2531	180.004113249128	322
5	2531	180.004113249128	323
5	2554	181.907280340272	324
5	2554	181.907280340272	325
5	2554	181.907280340272	326
5	2573	183.273372841268	327
5	2573	183.273372841268	328
5	2573	183.273372841268	329
5	2597	184.889695085663	330
5	2597	184.889695085663	331
5	2597	184.889695085663	332
5	2620	186.826071251977	333
5	2620	186.826071251977	334
5	2620	186.826071251977	335
5	2643	188.569670821843	336
5	2643	188.569670821843	337
5	2643	188.569670821843	338
5	2666	190.071903844095	339
5	2666	190.071903844095	340
5	2666	190.071903844095	341
5	2684	191.68599330732	342
5	2684	191.68599330732	343
5	2684	191.68599330732	344
5	2708	193.650712827486	345
5	2708	193.650712827486	346
5	2708	193.650712827486	347
5	2733	196.326862892296	348
5	2733	196.326862892296	349
5	2733	196.326862892296	350
5	2755	197.843306209135	351
5	2755	197.843306209135	352
5	2755	197.843306209135	353
5	2783	198.886321765446	354
5	2783	198.886321765446	355
5	2783	198.886321765446	356
5	2803	200.452922955052	357
5	2803	200.452922955052	358
5	2803	200.452922955052	359
5	2826	201.507952742315	360
5	2826	201.507952742315	361
5	2826	201.507952742315	362
5	2850	203.039656649639	363
5	2850	203.039656649639	364
5	2850	203.039656649639	365
5	2871	204.102207948212	366
5	2871	204.102207948212	367
5	2871	204.102207948212	368
5	2894	205.375082383496	369
5	2894	205.375082383496	370
5	2894	205.375082383496	371
5	2923	208.496524919046	372
5	2923	208.496524919046	373
5	2923	208.496524919046	374
5	2941	210.347691547395	375
5	2941	210.347691547395	376
5	2941	210.347691547395	377
5	2966	212.257787079542	378
5	2966	212.257787079542	379
5	2966	212.257787079542	380
5	2992	213.634722461353	381
5	2992	213.634722461353	382
5	2992	213.634722461353	383
5	3012	214.973710845229	384
5	3012	214.973710845229	385
5	3012	214.973710845229	386
5	3033	216.483676274615	387
5	3033	216.483676274615	388
5	3033	216.483676274615	389
5	3055	217.994137680917	390
5	3055	217.994137680917	391
5	3055	217.994137680917	392
5	3084	219.92594895789	393
5	3084	219.92594895789	394
5	3084	219.92594895789	395
5	3101	221.820617123058	396
5	3101	221.820617123058	397
5	3101	221.820617123058	398
5	3130	223.647564837976	399
5	3130	223.647564837976	400
5	3130	223.647564837976	401
5	3153	224.695058924884	402
5	3153	224.695058924884	403
5	3153	224.695058924884	404
5	3169	225.904590201233	405
5	3169	225.904590201233	406
5	3169	225.904590201233	407
5	3199	227.4507372595	408
5	3199	227.4507372595	409
5	3199	227.4507372595	410
5	3217	229.238310399274	411
5	3217	229.238310399274	412
5	3217	229.238310399274	413
5	3241	230.958101296971	414
5	3241	230.958101296971	415
5	3241	230.958101296971	416
5	3264	232.487357511745	417
5	3264	232.487357511745	418
5	3264	232.487357511745	419
5	3288	234.185051800307	420
5	3288	234.185051800307	421
5	3288	234.185051800307	422
5	3314	236.044925995648	423
5	3314	236.044925995648	424
5	3314	236.044925995648	425
5	3337	237.455999450312	426
5	3337	237.455999450312	427
5	3337	237.455999450312	428
5	3357	239.334855072347	429
5	3357	239.334855072347	430
5	3357	239.334855072347	431
6	25	1.354548070588	0
6	48	3.260637095335	1
6	71	4.774766119945	2
6	94	6.317619579268	3
6	117	8.06024175834	4
6	137	9.545375026967	5
6	160	11.502479413499	6
6	186	13.40108003916	7
6	209	15.050431400175	8
6	232	16.89601889665	9
6	278	20.305025908771	10
6	324	22.957203526693	11
6	343	23.961966057524	12
6	370	25.397650163293	13
6	391	26.848336342595	14
6	416	28.17050222962	15
6	462	31.399472868278	16
6	483	33.203865327908	17
6	508	34.244173807755	18
6	531	35.716207524801	19
6	553	39.014517207287	20
6	602	42.343322235779	21
6	627	45.931204137962	22
6	646	47.394491629146	23
6	673	48.879006624779	24
6	696	50.64234910901	25
6	712	52.09258429559	26
6	739	54.078161878743	27
6	762	55.990325713581	28
6	785	57.676435935229	29
6	805	58.763476083208	30
6	828	60.053663604499	31
6	847	61.537746259947	32
6	874	62.646724099575	33
6	897	64.355623795329	34
6	920	66.22097034845	35
6	936	67.871834066066	36
6	966	69.54474858099	37
6	985	70.964213054155	38
6	1008	72.399447402264	39
6	1035	73.807034785564	40
6	1081	76.526961729764	41
6	1104	78.327863748814	42
6	1127	81.119837209599	43
6	1152	82.548036977172	44
6	1173	83.980493415635	45
6	1198	85.477264367646	46
6	1221	86.90221648476	47
6	1267	90.19056852743	48
6	1290	92.089355473679	49
6	1338	97.663376157035	50
6	1363	98.798546491527	51
6	1386	100.755953240491	52
6	1409	102.715490096269	53
6	1426	104.237901603856	54
6	1455	105.713311109052	55
6	1478	106.97670345757	56
6	1501	108.961235198417	57
6	1544	112.863322867016	58
6	1572	114.557296882422	59
6	1595	116.202011636379	60
6	1641	119.402402058229	61
6	1664	120.638503070692	62
6	1687	122.044720423142	63
6	1712	124.993573101196	64
6	1758	127.364481088018	65
6	1781	128.374107263872	66
6	1801	130.124150714937	67
6	1846	132.617907720907	68
6	1873	134.518691253572	69
6	1896	136.182827844271	70
6	1938	139.963230480768	71
6	1975	142.666298206209	72
6	1998	144.286184278995	73
6	2026	145.648499802435	74
6	2049	146.808432677938	75
6	2070	148.445232958121	76
6	2095	149.760338513921	77
6	2141	152.831869231781	78
6	2164	153.864421756166	79
6	2187	155.737062251293	80
6	2226	158.588897658197	81
6	2252	160.189150494393	82
6	2279	161.215218118836	83
6	2300	163.167798486099	84
6	2322	164.315876596932	85
6	2348	165.903155748335	86
6	2371	167.439065364939	87
6	2419	171.798029971751	88
6	2442	173.77256343791	89
6	2465	175.325619907966	90
6	2488	176.409794236896	91
6	2508	178.124403980216	92
6	2557	181.917280340272	93
6	2580	183.283372841268	94
6	2600	184.899695085663	95
6	2623	186.836071251977	96
6	2669	190.081903844095	97
6	2692	191.69599330732	98
6	2715	193.660712827486	99
6	2740	196.336862892296	100
6	2763	197.853306209135	101
6	2786	198.896321765446	102
6	2809	200.462922955052	103
6	2829	201.517952742315	104
6	2855	203.049656649639	105
6	2878	204.112207948212	106
6	2949	210.357691547395	107
6	2972	212.267787079542	108
6	2995	213.644722461353	109
6	3041	216.493676274615	110
6	3061	218.004137680917	111
6	3087	219.93594895789	112
6	3107	221.830617123058	113
6	3133	223.657564837976	114
6	3173	225.914590201233	115
6	3248	230.968101296971	116
6	3268	232.497357511745	117
6	3294	234.195051800307	118
6	3317	236.054925995648	119
6	3340	237.465999450312	120
6	3363	239.344855072347	121

