version 2
run General-1-20230921-21:39:14-6065
attr configname General
attr datetime 20230921-21:39:14
attr experiment General
attr inifile omnetpp.ini
attr iterationvars ""
attr iterationvarsf ""
attr measurement ""
attr network Network2
attr processid 6065
attr repetition 1
attr replication #1
attr resultdir results
attr runnumber 1
attr seedset 1
param Network2.node[*].transmissionTime "uniform(1s, 2s)"
param Network2.node[*].delayTime "uniform(0.01s, 0.2s)"
param Network2.node[*].processingTime exponential(0.01s)
param Network2.node[*].lossProbability 0.1

vector 0 Network2.node[0] txVector ETV
vector 1 Network2.node[1] txVector ETV
vector 2 Network2.node[6] txVector ETV
vector 3 Network2.node[3] txVector ETV
vector 4 Network2.node[2] txVector ETV
vector 5 Network2.node[4] txVector ETV
vector 6 Network2.node[5] rxVector ETV
0	1	0.089234179703	0
0	24	2.086418987836	1
0	47	3.290871236825	2
0	70	4.809023785058	3
0	93	6.124539418963	4
0	116	7.220711677919	5
0	139	8.810017215206	6
0	162	10.693142686856	7
0	185	12.316814893044	8
0	208	13.672125256273	9
0	231	15.580660401729	10
0	254	17.088907939267	11
0	277	18.93093883258	12
0	300	20.682811801906	13
0	323	21.75478608499	14
0	346	22.959144209164	15
0	369	24.339285384982	16
0	392	25.434593196611	17
0	415	26.448544767105	18
0	438	27.900546373685	19
0	461	28.915565353471	20
0	484	30.345533250018	21
0	507	31.923390466838	22
0	530	33.005645375118	23
0	553	34.328326375807	24
0	576	35.602226700751	25
0	578	37.174715221511	26
0	580	38.907857752988	27
0	603	40.426869381802	28
0	626	41.499992693193	29
0	649	42.610883996008	30
0	672	44.401257517865	31
0	695	45.725619980251	32
0	718	47.131924281247	33
0	741	49.122396062246	34
0	743	51.00970411522	35
0	766	52.543638448582	36
0	789	53.747544674554	37
0	812	54.836160933717	38
0	835	56.057593669395	39
0	855	57.875362058288	40
0	878	59.86230487202	41
0	901	60.987946248731	42
0	924	62.825750116377	43
0	947	63.972542485806	44
0	970	65.201147295187	45
0	993	66.829456336216	46
0	1016	68.40380055865	47
0	1039	70.105677089772	48
0	1062	71.213340963355	49
0	1085	72.38132425293	50
0	1108	73.821112319479	51
0	1131	74.945934865276	52
0	1154	76.699545348181	53
0	1177	78.260075332715	54
0	1200	80.103681822658	55
0	1223	81.778245848023	56
0	1246	82.878967105063	57
0	1269	84.522862747895	58
0	1271	85.860886129668	59
0	1294	87.651866291069	60
0	1317	88.728055101006	61
0	1340	89.797451064807	62
0	1363	91.657688060428	63
0	1386	93.184502154474	64
0	1409	94.423817863573	65
0	1432	95.888050876676	66
0	1455	97.672508295744	67
0	1478	99.342396298542	68
0	1501	100.350329176409	69
0	1524	101.88274783327	70
0	1547	103.176963521985	71
0	1570	104.321989735009	72
0	1593	105.697080755725	73
0	1616	106.785287456007	74
0	1639	108.467741163566	75
0	1662	109.893406527235	76
0	1685	111.54171928845	77
0	1708	113.388215654647	78
0	1710	114.858803535696	79
0	1733	116.845376309823	80
0	1756	118.256923385547	81
0	1779	119.960442721961	82
0	1802	121.025314707193	83
0	1821	122.936333944207	84
0	1844	123.938630777528	85
0	1867	125.080852030195	86
0	1890	126.480045991135	87
0	1913	128.247823186801	88
0	1936	130.008662436041	89
0	1959	131.945914501208	90
0	1982	133.801366313244	91
0	2005	135.08516814711	92
0	2028	136.507010218338	93
0	2051	137.546870139311	94
0	2074	138.976544801728	95
0	2097	140.10208790761	96
0	2120	141.510613627383	97
0	2143	143.325232805335	98
0	2166	144.40446261887	99
0	2189	145.519565659226	100
0	2212	147.111001523561	101
0	2235	148.966191800661	102
0	2258	150.817105989555	103
0	2281	152.081243636903	104
0	2304	153.55204606394	105
0	2327	155.456149050851	106
0	2350	157.2969121082	107
0	2373	159.021828856204	108
0	2396	160.89500142343	109
0	2419	162.530372382958	110
0	2442	164.377279297334	111
0	2444	165.838859011537	112
0	2467	167.399807766663	113
0	2490	168.904796356453	114
0	2513	170.605085792138	115
0	2536	172.002917529202	116
0	2559	173.070406871268	117
0	2582	174.635531950861	118
0	2605	176.54927157413	119
0	2628	178.121358788691	120
0	2651	179.33932771662	121
0	2674	180.347451836455	122
0	2697	181.884220154376	123
0	2720	183.508457275692	124
0	2743	185.158040329467	125
0	2745	186.44183457352	126
0	2747	188.415808224238	127
0	2749	189.847785276014	128
0	2772	190.964483242601	129
0	2774	192.426004501179	130
0	2797	193.707305768857	131
0	2820	195.101571953276	132
0	2843	196.628423828052	133
0	2845	197.996025096511	134
0	2868	199.40345011058	135
0	2891	201.293956941345	136
0	2914	202.666002252723	137
0	2937	203.910636321993	138
0	2939	204.99630770169	139
0	2962	206.252739623308	140
0	2985	207.385946737256	141
0	3008	209.000547908831	142
0	3031	210.059905129836	143
0	3033	211.680679271116	144
0	3056	213.630524085022	145
0	3079	214.896036099296	146
0	3081	216.226209686955	147
0	3104	217.870215041449	148
0	3127	219.539861643107	149
0	3150	220.704553745107	150
0	3170	222.469737706824	151
0	3193	223.659325113172	152
0	3216	225.582695091727	153
0	3239	226.610406827067	154
0	3262	228.192803734566	155
0	3285	229.429273389631	156
0	3308	231.081492506784	157
0	3331	233.068169944805	158
0	3354	234.647410995911	159
0	3377	236.40723639366	160
0	3400	237.558705756327	161
0	3423	238.81659874006	162
1	3	0.126198958082	0
1	3	0.126198958082	1
1	3	0.126198958082	2
1	3	0.126198958082	3
1	26	2.117465960799	4
1	26	2.117465960799	5
1	26	2.117465960799	6
1	26	2.117465960799	7
1	49	3.320897541596	8
1	49	3.320897541596	9
1	49	3.320897541596	10
1	49	3.320897541596	11
1	72	4.830623373741	12
1	72	4.830623373741	13
1	72	4.830623373741	14
1	72	4.830623373741	15
1	95	6.157908096962	16
1	95	6.157908096962	17
1	95	6.157908096962	18
1	95	6.157908096962	19
1	118	7.24274335459	20
1	118	7.24274335459	21
1	118	7.24274335459	22
1	118	7.24274335459	23
1	141	8.827799652398	24
1	141	8.827799652398	25
1	141	8.827799652398	26
1	141	8.827799652398	27
1	164	10.71704339919	28
1	164	10.71704339919	29
1	164	10.71704339919	30
1	164	10.71704339919	31
1	187	12.355259942723	32
1	187	12.355259942723	33
1	187	12.355259942723	34
1	187	12.355259942723	35
1	210	13.691889913928	36
1	210	13.691889913928	37
1	210	13.691889913928	38
1	210	13.691889913928	39
1	233	15.592999518786	40
1	233	15.592999518786	41
1	233	15.592999518786	42
1	233	15.592999518786	43
1	256	17.100233809849	44
1	256	17.100233809849	45
1	256	17.100233809849	46
1	256	17.100233809849	47
1	279	18.946521720384	48
1	279	18.946521720384	49
1	279	18.946521720384	50
1	279	18.946521720384	51
1	302	20.727008367893	52
1	302	20.727008367893	53
1	302	20.727008367893	54
1	302	20.727008367893	55
1	325	21.804825623263	56
1	325	21.804825623263	57
1	325	21.804825623263	58
1	325	21.804825623263	59
1	348	22.977150379879	60
1	348	22.977150379879	61
1	348	22.977150379879	62
1	348	22.977150379879	63
1	371	24.350831627981	64
1	371	24.350831627981	65
1	371	24.350831627981	66
1	371	24.350831627981	67
1	394	25.447263655796	68
1	394	25.447263655796	69
1	394	25.447263655796	70
1	394	25.447263655796	71
1	417	26.475065024678	72
1	417	26.475065024678	73
1	417	26.475065024678	74
1	417	26.475065024678	75
1	440	27.91248460326	76
1	440	27.91248460326	77
1	440	27.91248460326	78
1	440	27.91248460326	79
1	463	28.929816245207	80
1	463	28.929816245207	81
1	463	28.929816245207	82
1	463	28.929816245207	83
1	486	30.357566784324	84
1	486	30.357566784324	85
1	486	30.357566784324	86
1	486	30.357566784324	87
1	509	31.935107321999	88
1	509	31.935107321999	89
1	509	31.935107321999	90
1	509	31.935107321999	91
1	532	33.026755932734	92
1	532	33.026755932734	93
1	532	33.026755932734	94
1	532	33.026755932734	95
1	555	34.338426876412	96
1	555	34.338426876412	97
1	555	34.338426876412	98
1	555	34.338426876412	99
1	582	38.932593017793	100
1	582	38.932593017793	101
1	582	38.932593017793	102
1	582	38.932593017793	103
1	605	40.447667244845	104
1	605	40.447667244845	105
1	605	40.447667244845	106
1	605	40.447667244845	107
1	628	41.512136547518	108
1	628	41.512136547518	109
1	628	41.512136547518	110
1	628	41.512136547518	111
1	651	42.623336599591	112
1	651	42.623336599591	113
1	651	42.623336599591	114
1	651	42.623336599591	115
1	674	44.43188708979	116
1	674	44.43188708979	117
1	674	44.43188708979	118
1	674	44.43188708979	119
1	697	45.747805263416	120
1	697	45.747805263416	121
1	697	45.747805263416	122
1	697	45.747805263416	123
1	720	47.145494578994	124
1	720	47.145494578994	125
1	720	47.145494578994	126
1	720	47.145494578994	127
1	745	51.028314554706	128
1	745	51.028314554706	129
1	745	51.028314554706	130
1	745	51.028314554706	131
1	768	52.556485086921	132
1	768	52.556485086921	133
1	768	52.556485086921	134
1	768	52.556485086921	135
1	791	53.759356172672	136
1	791	53.759356172672	137
1	791	53.759356172672	138
1	791	53.759356172672	139
1	814	54.849268012015	140
1	814	54.849268012015	141
1	814	54.849268012015	142
1	814	54.849268012015	143
1	837	56.078273991789	144
1	837	56.078273991789	145
1	837	56.078273991789	146
1	837	56.078273991789	147
1	857	57.890258171219	148
1	857	57.890258171219	149
1	857	57.890258171219	150
1	857	57.890258171219	151
1	880	59.881941671972	152
1	880	59.881941671972	153
1	880	59.881941671972	154
1	880	59.881941671972	155
1	903	61.009853701942	156
1	903	61.009853701942	157
1	903	61.009853701942	158
1	903	61.009853701942	159
1	926	62.838819410619	160
1	926	62.838819410619	161
1	926	62.838819410619	162
1	926	62.838819410619	163
1	949	64.001024917449	164
1	949	64.001024917449	165
1	949	64.001024917449	166
1	949	64.001024917449	167
1	972	65.214573562535	168
1	972	65.214573562535	169
1	972	65.214573562535	170
1	972	65.214573562535	171
1	995	66.844218113001	172
1	995	66.844218113001	173
1	995	66.844218113001	174
1	995	66.844218113001	175
1	1018	68.416549607393	176
1	1018	68.416549607393	177
1	1018	68.416549607393	178
1	1018	68.416549607393	179
1	1041	70.121703654257	180
1	1041	70.121703654257	181
1	1041	70.121703654257	182
1	1041	70.121703654257	183
1	1064	71.259381785123	184
1	1064	71.259381785123	185
1	1064	71.259381785123	186
1	1064	71.259381785123	187
1	1087	72.400831888778	188
1	1087	72.400831888778	189
1	1087	72.400831888778	190
1	1087	72.400831888778	191
1	1110	73.83485927409	192
1	1110	73.83485927409	193
1	1110	73.83485927409	194
1	1110	73.83485927409	195
1	1133	74.964557019316	196
1	1133	74.964557019316	197
1	1133	74.964557019316	198
1	1133	74.964557019316	199
1	1156	76.72068452995	200
1	1156	76.72068452995	201
1	1156	76.72068452995	202
1	1156	76.72068452995	203
1	1179	78.276053091573	204
1	1179	78.276053091573	205
1	1179	78.276053091573	206
1	1179	78.276053091573	207
1	1202	80.129765034875	208
1	1202	80.129765034875	209
1	1202	80.129765034875	210
1	1202	80.129765034875	211
1	1225	81.788532615813	212
1	1225	81.788532615813	213
1	1225	81.788532615813	214
1	1225	81.788532615813	215
1	1248	82.903003787042	216
1	1248	82.903003787042	217
1	1248	82.903003787042	218
1	1248	82.903003787042	219
1	1273	85.884714029435	220
1	1273	85.884714029435	221
1	1273	85.884714029435	222
1	1273	85.884714029435	223
1	1296	87.668957465303	224
1	1296	87.668957465303	225
1	1296	87.668957465303	226
1	1296	87.668957465303	227
1	1319	88.745636403218	228
1	1319	88.745636403218	229
1	1319	88.745636403218	230
1	1319	88.745636403218	231
1	1342	89.815635987819	232
1	1342	89.815635987819	233
1	1342	89.815635987819	234
1	1342	89.815635987819	235
1	1365	91.668020521271	236
1	1365	91.668020521271	237
1	1365	91.668020521271	238
1	1365	91.668020521271	239
1	1388	93.195789210037	240
1	1388	93.195789210037	241
1	1388	93.195789210037	242
1	1388	93.195789210037	243
1	1411	94.434540375973	244
1	1411	94.434540375973	245
1	1411	94.434540375973	246
1	1411	94.434540375973	247
1	1434	95.904156704662	248
1	1434	95.904156704662	249
1	1434	95.904156704662	250
1	1434	95.904156704662	251
1	1457	97.699263950817	252
1	1457	97.699263950817	253
1	1457	97.699263950817	254
1	1457	97.699263950817	255
1	1480	99.397808922267	256
1	1480	99.397808922267	257
1	1480	99.397808922267	258
1	1480	99.397808922267	259
1	1503	100.378435460745	260
1	1503	100.378435460745	261
1	1503	100.378435460745	262
1	1503	100.378435460745	263
1	1526	101.893839952042	264
1	1526	101.893839952042	265
1	1526	101.893839952042	266
1	1526	101.893839952042	267
1	1549	103.19750598756	268
1	1549	103.19750598756	269
1	1549	103.19750598756	270
1	1549	103.19750598756	271
1	1572	104.351472780006	272
1	1572	104.351472780006	273
1	1572	104.351472780006	274
1	1572	104.351472780006	275
1	1595	105.726816673451	276
1	1595	105.726816673451	277
1	1595	105.726816673451	278
1	1595	105.726816673451	279
1	1618	106.797877828617	280
1	1618	106.797877828617	281
1	1618	106.797877828617	282
1	1618	106.797877828617	283
1	1641	108.491572058748	284
1	1641	108.491572058748	285
1	1641	108.491572058748	286
1	1641	108.491572058748	287
1	1664	109.905269108782	288
1	1664	109.905269108782	289
1	1664	109.905269108782	290
1	1664	109.905269108782	291
1	1687	111.559817124541	292
1	1687	111.559817124541	293
1	1687	111.559817124541	294
1	1687	111.559817124541	295
1	1712	114.898426351077	296
1	1712	114.898426351077	297
1	1712	114.898426351077	298
1	1712	114.898426351077	299
1	1735	116.859201590378	300
1	1735	116.859201590378	301
1	1735	116.859201590378	302
1	1735	116.859201590378	303
1	1758	118.277963338241	304
1	1758	118.277963338241	305
1	1758	118.277963338241	306
1	1758	118.277963338241	307
1	1781	119.970536349519	308
1	1781	119.970536349519	309
1	1781	119.970536349519	310
1	1781	119.970536349519	311
1	1804	121.035759810306	312
1	1804	121.035759810306	313
1	1804	121.035759810306	314
1	1804	121.035759810306	315
1	1823	122.949249131603	316
1	1823	122.949249131603	317
1	1823	122.949249131603	318
1	1823	122.949249131603	319
1	1846	123.961609721464	320
1	1846	123.961609721464	321
1	1846	123.961609721464	322
1	1846	123.961609721464	323
1	1869	125.096618932051	324
1	1869	125.096618932051	325
1	1869	125.096618932051	326
1	1869	125.096618932051	327
1	1892	126.493475092282	328
1	1892	126.493475092282	329
1	1892	126.493475092282	330
1	1892	126.493475092282	331
1	1915	128.277668102564	332
1	1915	128.277668102564	333
1	1915	128.277668102564	334
1	1915	128.277668102564	335
1	1938	130.025387355002	336
1	1938	130.025387355002	337
1	1938	130.025387355002	338
1	1938	130.025387355002	339
1	1961	132.003568118876	340
1	1961	132.003568118876	341
1	1961	132.003568118876	342
1	1961	132.003568118876	343
1	1984	133.818870830896	344
1	1984	133.818870830896	345
1	1984	133.818870830896	346
1	1984	133.818870830896	347
1	2007	135.096799478341	348
1	2007	135.096799478341	349
1	2007	135.096799478341	350
1	2007	135.096799478341	351
1	2030	136.518458084695	352
1	2030	136.518458084695	353
1	2030	136.518458084695	354
1	2030	136.518458084695	355
1	2053	137.560068562121	356
1	2053	137.560068562121	357
1	2053	137.560068562121	358
1	2053	137.560068562121	359
1	2076	139.001367815888	360
1	2076	139.001367815888	361
1	2076	139.001367815888	362
1	2076	139.001367815888	363
1	2099	140.138840433111	364
1	2099	140.138840433111	365
1	2099	140.138840433111	366
1	2099	140.138840433111	367
1	2122	141.521169956066	368
1	2122	141.521169956066	369
1	2122	141.521169956066	370
1	2122	141.521169956066	371
1	2145	143.338805155857	372
1	2145	143.338805155857	373
1	2145	143.338805155857	374
1	2145	143.338805155857	375
1	2168	144.417037396237	376
1	2168	144.417037396237	377
1	2168	144.417037396237	378
1	2168	144.417037396237	379
1	2191	145.537514656632	380
1	2191	145.537514656632	381
1	2191	145.537514656632	382
1	2191	145.537514656632	383
1	2214	147.130281919665	384
1	2214	147.130281919665	385
1	2214	147.130281919665	386
1	2214	147.130281919665	387
1	2237	148.986890062659	388
1	2237	148.986890062659	389
1	2237	148.986890062659	390
1	2237	148.986890062659	391
1	2260	150.83074857291	392
1	2260	150.83074857291	393
1	2260	150.83074857291	394
1	2260	150.83074857291	395
1	2283	152.103057513502	396
1	2283	152.103057513502	397
1	2283	152.103057513502	398
1	2283	152.103057513502	399
1	2306	153.564708775826	400
1	2306	153.564708775826	401
1	2306	153.564708775826	402
1	2306	153.564708775826	403
1	2329	155.493179419315	404
1	2329	155.493179419315	405
1	2329	155.493179419315	406
1	2329	155.493179419315	407
1	2352	157.310922732497	408
1	2352	157.310922732497	409
1	2352	157.310922732497	410
1	2352	157.310922732497	411
1	2375	159.051056169599	412
1	2375	159.051056169599	413
1	2375	159.051056169599	414
1	2375	159.051056169599	415
1	2398	160.923826236344	416
1	2398	160.923826236344	417
1	2398	160.923826236344	418
1	2398	160.923826236344	419
1	2421	162.556989236286	420
1	2421	162.556989236286	421
1	2421	162.556989236286	422
1	2421	162.556989236286	423
1	2446	165.864016826491	424
1	2446	165.864016826491	425
1	2446	165.864016826491	426
1	2446	165.864016826491	427
1	2469	167.413043250431	428
1	2469	167.413043250431	429
1	2469	167.413043250431	430
1	2469	167.413043250431	431
1	2492	168.92115453378	432
1	2492	168.92115453378	433
1	2492	168.92115453378	434
1	2492	168.92115453378	435
1	2515	170.617313167789	436
1	2515	170.617313167789	437
1	2515	170.617313167789	438
1	2515	170.617313167789	439
1	2538	172.034165148187	440
1	2538	172.034165148187	441
1	2538	172.034165148187	442
1	2538	172.034165148187	443
1	2561	173.08184295681	444
1	2561	173.08184295681	445
1	2561	173.08184295681	446
1	2561	173.08184295681	447
1	2584	174.649799391203	448
1	2584	174.649799391203	449
1	2584	174.649799391203	450
1	2584	174.649799391203	451
1	2607	176.562141499649	452
1	2607	176.562141499649	453
1	2607	176.562141499649	454
1	2607	176.562141499649	455
1	2630	178.157365304754	456
1	2630	178.157365304754	457
1	2630	178.157365304754	458
1	2630	178.157365304754	459
1	2653	179.353849196806	460
1	2653	179.353849196806	461
1	2653	179.353849196806	462
1	2653	179.353849196806	463
1	2676	180.362404812847	464
1	2676	180.362404812847	465
1	2676	180.362404812847	466
1	2676	180.362404812847	467
1	2699	181.896569584682	468
1	2699	181.896569584682	469
1	2699	181.896569584682	470
1	2699	181.896569584682	471
1	2722	183.545258759038	472
1	2722	183.545258759038	473
1	2722	183.545258759038	474
1	2722	183.545258759038	475
1	2751	189.860268497854	476
1	2751	189.860268497854	477
1	2751	189.860268497854	478
1	2751	189.860268497854	479
1	2776	192.436298441066	480
1	2776	192.436298441066	481
1	2776	192.436298441066	482
1	2776	192.436298441066	483
1	2799	193.739089630204	484
1	2799	193.739089630204	485
1	2799	193.739089630204	486
1	2799	193.739089630204	487
1	2822	195.116969391104	488
1	2822	195.116969391104	489
1	2822	195.116969391104	490
1	2822	195.116969391104	491
1	2847	198.007583327656	492
1	2847	198.007583327656	493
1	2847	198.007583327656	494
1	2847	198.007583327656	495
1	2870	199.418260228818	496
1	2870	199.418260228818	497
1	2870	199.418260228818	498
1	2870	199.418260228818	499
1	2893	201.308398504166	500
1	2893	201.308398504166	501
1	2893	201.308398504166	502
1	2893	201.308398504166	503
1	2916	202.685934185368	504
1	2916	202.685934185368	505
1	2916	202.685934185368	506
1	2916	202.685934185368	507
1	2941	205.010782421982	508
1	2941	205.010782421982	509
1	2941	205.010782421982	510
1	2941	205.010782421982	511
1	2964	206.290398597345	512
1	2964	206.290398597345	513
1	2964	206.290398597345	514
1	2964	206.290398597345	515
1	2987	207.400989614969	516
1	2987	207.400989614969	517
1	2987	207.400989614969	518
1	2987	207.400989614969	519
1	3010	209.017334881823	520
1	3010	209.017334881823	521
1	3010	209.017334881823	522
1	3010	209.017334881823	523
1	3035	211.701495682016	524
1	3035	211.701495682016	525
1	3035	211.701495682016	526
1	3035	211.701495682016	527
1	3058	213.640679726337	528
1	3058	213.640679726337	529
1	3058	213.640679726337	530
1	3058	213.640679726337	531
1	3083	216.257759725569	532
1	3083	216.257759725569	533
1	3083	216.257759725569	534
1	3083	216.257759725569	535
1	3106	217.896706129437	536
1	3106	217.896706129437	537
1	3106	217.896706129437	538
1	3106	217.896706129437	539
1	3129	219.554618573962	540
1	3129	219.554618573962	541
1	3129	219.554618573962	542
1	3129	219.554618573962	543
1	3152	220.722950573692	544
1	3152	220.722950573692	545
1	3152	220.722950573692	546
1	3152	220.722950573692	547
1	3172	222.502345337024	548
1	3172	222.502345337024	549
1	3172	222.502345337024	550
1	3172	222.502345337024	551
1	3195	223.705025692519	552
1	3195	223.705025692519	553
1	3195	223.705025692519	554
1	3195	223.705025692519	555
1	3218	225.593587668576	556
1	3218	225.593587668576	557
1	3218	225.593587668576	558
1	3218	225.593587668576	559
1	3241	226.621169909662	560
1	3241	226.621169909662	561
1	3241	226.621169909662	562
1	3241	226.621169909662	563
1	3264	228.204639798612	564
1	3264	228.204639798612	565
1	3264	228.204639798612	566
1	3264	228.204639798612	567
1	3287	229.461922663084	568
1	3287	229.461922663084	569
1	3287	229.461922663084	570
1	3287	229.461922663084	571
1	3310	231.092181408442	572
1	3310	231.092181408442	573
1	3310	231.092181408442	574
1	3310	231.092181408442	575
1	3333	233.08134857477	576
1	3333	233.08134857477	577
1	3333	233.08134857477	578
1	3333	233.08134857477	579
1	3356	234.680734833285	580
1	3356	234.680734833285	581
1	3356	234.680734833285	582
1	3356	234.680734833285	583
1	3379	236.428220381997	584
1	3379	236.428220381997	585
1	3379	236.428220381997	586
1	3379	236.428220381997	587
1	3402	237.595954489034	588
1	3402	237.595954489034	589
1	3402	237.595954489034	590
1	3402	237.595954489034	591
1	3425	238.841884742352	592
1	3425	238.841884742352	593
1	3425	238.841884742352	594
1	3425	238.841884742352	595
2	8	0.137167796807	0
2	8	0.137167796807	1
2	31	2.132866871297	2
2	31	2.132866871297	3
2	56	3.332758794486	4
2	56	3.332758794486	5
2	90	4.90091593197	6
2	90	4.90091593197	7
2	109	6.186065385507	8
2	109	6.186065385507	9
2	123	7.259536972827	10
2	123	7.259536972827	11
2	147	8.842869263968	12
2	147	8.842869263968	13
2	170	10.741018503466	14
2	170	10.741018503466	15
2	193	12.373785581127	16
2	193	12.373785581127	17
2	215	13.713630718558	18
2	215	13.713630718558	19
2	238	15.604890302396	20
2	238	15.604890302396	21
2	262	17.115645396012	22
2	262	17.115645396012	23
2	285	18.957815332254	24
2	285	18.957815332254	25
2	308	20.738658731876	26
2	308	20.738658731876	27
2	331	21.815551568311	28
2	331	21.815551568311	29
2	353	22.988569095198	30
2	353	22.988569095198	31
2	386	24.386708728072	32
2	386	24.386708728072	33
2	412	25.483193044171	34
2	412	25.483193044171	35
2	427	26.501438757132	36
2	427	26.501438757132	37
2	446	27.930128400344	38
2	446	27.930128400344	39
2	470	28.948956934934	40
2	470	28.948956934934	41
2	504	30.41153852973	42
2	504	30.41153852973	43
2	514	31.948470112432	44
2	514	31.948470112432	45
2	537	33.036990346177	46
2	537	33.036990346177	47
2	566	34.375740913913	48
2	566	34.375740913913	49
2	588	38.952707018984	50
2	588	38.952707018984	51
2	611	40.46190107234	52
2	611	40.46190107234	53
2	635	41.529177899416	54
2	635	41.529177899416	55
2	658	42.643953734995	56
2	658	42.643953734995	57
2	681	44.451685533307	58
2	681	44.451685533307	59
2	702	45.760812239398	60
2	702	45.760812239398	61
2	726	47.160793888866	62
2	726	47.160793888866	63
2	759	51.058144692964	64
2	759	51.058144692964	65
2	773	52.568722458711	66
2	773	52.568722458711	67
2	797	53.777142173491	68
2	797	53.777142173491	69
2	819	54.860422331117	70
2	819	54.860422331117	71
2	864	57.906760437237	72
2	864	57.906760437237	73
2	885	59.891971897219	74
2	885	59.891971897219	75
2	909	61.033013940474	76
2	909	61.033013940474	77
2	944	62.896679144344	78
2	944	62.896679144344	79
2	954	64.011301581803	80
2	954	64.011301581803	81
2	977	65.228305151899	82
2	977	65.228305151899	83
2	1001	66.856796883023	84
2	1001	66.856796883023	85
2	1032	68.449935739593	86
2	1032	68.449935739593	87
2	1046	70.140757358336	88
2	1046	70.140757358336	89
2	1071	71.279184934431	90
2	1071	71.279184934431	91
2	1093	72.414687819944	92
2	1093	72.414687819944	93
2	1115	73.84925220711	94
2	1115	73.84925220711	95
2	1139	74.981181811077	96
2	1139	74.981181811077	97
2	1162	76.733520374548	98
2	1162	76.733520374548	99
2	1184	78.287833472098	100
2	1184	78.287833472098	101
2	1207	80.142092248338	102
2	1207	80.142092248338	103
2	1234	81.813353377356	104
2	1234	81.813353377356	105
2	1262	82.945249612429	106
2	1262	82.945249612429	107
2	1278	85.896945027497	108
2	1278	85.896945027497	109
2	1306	87.701336337908	110
2	1306	87.701336337908	111
2	1325	88.763645668851	112
2	1325	88.763645668851	113
2	1352	89.839280200046	114
2	1352	89.839280200046	115
2	1371	91.691908468907	116
2	1371	91.691908468907	117
2	1393	93.207757468943	118
2	1393	93.207757468943	119
2	1418	94.455778803291	120
2	1418	94.455778803291	121
2	1440	95.915563288083	122
2	1440	95.915563288083	123
2	1462	97.710639498932	124
2	1462	97.710639498932	125
2	1485	99.413591395566	126
2	1485	99.413591395566	127
2	1512	100.407863784324	128
2	1512	100.407863784324	129
2	1537	101.916425850766	130
2	1537	101.916425850766	131
2	1556	103.212759243642	132
2	1556	103.212759243642	133
2	1579	104.374564539152	134
2	1579	104.374564539152	135
2	1604	105.753454018083	136
2	1604	105.753454018083	137
2	1628	106.835762065549	138
2	1628	106.835762065549	139
2	1647	108.508947769322	140
2	1647	108.508947769322	141
2	1673	109.930201312618	142
2	1673	109.930201312618	143
2	1702	111.592505134896	144
2	1702	111.592505134896	145
2	1719	114.916169606042	146
2	1719	114.916169606042	147
2	1753	116.956426882223	148
2	1753	116.956426882223	149
2	1773	118.319528849691	150
2	1773	118.319528849691	151
2	1796	120.019401538512	152
2	1796	120.019401538512	153
2	1818	121.064501176643	154
2	1818	121.064501176643	155
2	1828	122.96526094373	156
2	1828	122.96526094373	157
2	1853	123.983730543079	158
2	1853	123.983730543079	159
2	1875	125.113549051379	160
2	1875	125.113549051379	161
2	1897	126.508561024445	162
2	1897	126.508561024445	163
2	1921	128.305655128243	164
2	1921	128.305655128243	165
2	1943	130.036392540138	166
2	1943	130.036392540138	167
2	1967	132.016126411794	168
2	1967	132.016126411794	169
2	1994	133.842847289903	170
2	1994	133.842847289903	171
2	2014	135.110683033466	172
2	2014	135.110683033466	173
2	2044	136.55454275975	174
2	2044	136.55454275975	175
2	2064	137.600064523498	176
2	2064	137.600064523498	177
2	2082	139.01803171442	178
2	2082	139.01803171442	179
2	2104	140.149511575048	180
2	2104	140.149511575048	181
2	2128	141.543188828746	182
2	2128	141.543188828746	183
2	2163	143.393785096867	184
2	2163	143.393785096867	185
2	2173	144.431833205231	186
2	2173	144.431833205231	187
2	2196	145.555164935828	188
2	2196	145.555164935828	189
2	2229	147.164101363293	190
2	2229	147.164101363293	191
2	2255	149.056744845522	192
2	2255	149.056744845522	193
2	2274	150.874796243758	194
2	2274	150.874796243758	195
2	2290	152.125242065344	196
2	2290	152.125242065344	197
2	2311	153.582394738697	198
2	2311	153.582394738697	199
2	2334	155.509934652561	200
2	2334	155.509934652561	201
2	2363	157.33621240964	202
2	2363	157.33621240964	203
2	2380	159.061843321726	204
2	2380	159.061843321726	205
2	2408	160.959377436314	206
2	2408	160.959377436314	207
2	2427	162.568306496309	208
2	2427	162.568306496309	209
2	2451	165.875116092622	210
2	2451	165.875116092622	211
2	2483	167.459153420448	212
2	2483	167.459153420448	213
2	2497	168.93369328815	214
2	2497	168.93369328815	215
2	2529	170.645453082205	216
2	2529	170.645453082205	217
2	2550	172.064413753542	218
2	2550	172.064413753542	219
2	2571	173.103186708004	220
2	2571	173.103186708004	221
2	2591	174.670094845508	222
2	2591	174.670094845508	223
2	2613	176.582500083282	224
2	2613	176.582500083282	225
2	2637	178.174348371061	226
2	2637	178.174348371061	227
2	2659	179.366216183651	228
2	2659	179.366216183651	229
2	2681	180.374104102341	230
2	2681	180.374104102341	231
2	2704	181.908501965049	232
2	2704	181.908501965049	233
2	2732	183.580421185182	234
2	2732	183.580421185182	235
2	2756	189.876954159153	236
2	2756	189.876954159153	237
2	2781	192.448259376653	238
2	2781	192.448259376653	239
2	2805	193.755171137989	240
2	2805	193.755171137989	241
2	2828	195.131452950103	242
2	2828	195.131452950103	243
2	2852	198.020843932124	244
2	2852	198.020843932124	245
2	2875	199.429262771529	246
2	2875	199.429262771529	247
2	2900	201.324274637853	248
2	2900	201.324274637853	249
2	2925	202.71582847438	250
2	2925	202.71582847438	251
2	2948	205.029711741958	252
2	2948	205.029711741958	253
2	2970	206.318336774987	254
2	2970	206.318336774987	255
2	2993	207.421344346786	256
2	2993	207.421344346786	257
2	3024	209.055095919745	258
2	3024	209.055095919745	259
2	3049	211.741015527613	260
2	3049	211.741015527613	261
2	3064	213.654510179752	262
2	3064	213.654510179752	263
2	3098	216.291523016323	264
2	3098	216.291523016323	265
2	3118	217.928380139551	266
2	3118	217.928380139551	267
2	3134	219.567626810288	268
2	3134	219.567626810288	269
2	3177	222.513997934953	270
2	3177	222.513997934953	271
2	3201	223.721490029332	272
2	3201	223.721490029332	273
2	3224	225.61663325374	274
2	3224	225.61663325374	275
2	3246	226.636256781186	276
2	3246	226.636256781186	277
2	3279	228.24390313981	278
2	3279	228.24390313981	279
2	3292	229.479712216	280
2	3292	229.479712216	281
2	3317	231.10887143869	282
2	3317	231.10887143869	283
2	3338	233.097562884587	284
2	3338	233.097562884587	285
2	3361	234.692115690567	286
2	3361	234.692115690567	287
2	3389	236.467896256255	288
2	3389	236.467896256255	289
2	3416	237.628235046393	290
2	3416	237.628235046393	291
2	3431	238.859512911137	292
2	3431	238.859512911137	293
3	9	0.137786054054	0
3	9	0.137786054054	1
3	9	0.137786054054	2
3	32	2.138566763985	3
3	32	2.138566763985	4
3	32	2.138566763985	5
3	54	3.331295920388	6
3	54	3.331295920388	7
3	54	3.331295920388	8
3	82	4.859234034417	9
3	82	4.859234034417	10
3	82	4.859234034417	11
3	100	6.168103666513	12
3	100	6.168103666513	13
3	100	6.168103666513	14
3	135	7.282688311692	15
3	135	7.282688311692	16
3	135	7.282688311692	17
3	154	8.854270598001	18
3	154	8.854270598001	19
3	154	8.854270598001	20
3	169	10.731452224602	21
3	169	10.731452224602	22
3	169	10.731452224602	23
3	201	12.388629587874	24
3	201	12.388629587874	25
3	201	12.388629587874	26
3	219	13.728402440644	27
3	219	13.728402440644	28
3	219	13.728402440644	29
3	239	15.610315527674	30
3	239	15.610315527674	31
3	239	15.610315527674	32
3	263	17.118675060855	33
3	263	17.118675060855	34
3	263	17.118675060855	35
3	284	18.957139598873	36
3	284	18.957139598873	37
3	284	18.957139598873	38
3	307	20.737776843546	39
3	307	20.737776843546	40
3	307	20.737776843546	41
3	330	21.815013132293	42
3	330	21.815013132293	43
3	330	21.815013132293	44
3	354	22.993352182317	45
3	354	22.993352182317	46
3	354	22.993352182317	47
3	376	24.368269094224	48
3	376	24.368269094224	49
3	376	24.368269094224	50
3	399	25.462332179023	51
3	399	25.462332179023	52
3	399	25.462332179023	53
3	430	26.518104606469	54
3	430	26.518104606469	55
3	430	26.518104606469	56
3	454	27.944173003322	57
3	454	27.944173003322	58
3	454	27.944173003322	59
3	469	28.946554663001	60
3	469	28.946554663001	61
3	469	28.946554663001	62
3	491	30.368060123796	63
3	491	30.368060123796	64
3	491	30.368060123796	65
3	516	31.954997984903	66
3	516	31.954997984903	67
3	516	31.954997984903	68
3	538	33.039503165188	69
3	538	33.039503165188	70
3	538	33.039503165188	71
3	565	34.374569885168	72
3	565	34.374569885168	73
3	565	34.374569885168	74
3	593	38.959294004805	75
3	593	38.959294004805	76
3	593	38.959294004805	77
3	612	40.463957332654	78
3	612	40.463957332654	79
3	612	40.463957332654	80
3	633	41.522226073873	81
3	633	41.522226073873	82
3	633	41.522226073873	83
3	656	42.641189446217	84
3	656	42.641189446217	85
3	656	42.641189446217	86
3	679	44.441897227726	87
3	679	44.441897227726	88
3	679	44.441897227726	89
3	705	45.770962824646	90
3	705	45.770962824646	91
3	705	45.770962824646	92
3	727	47.163569663219	93
3	727	47.163569663219	94
3	727	47.163569663219	95
3	751	51.042880187824	96
3	751	51.042880187824	97
3	751	51.042880187824	98
3	781	52.59188508423	99
3	781	52.59188508423	100
3	781	52.59188508423	101
3	796	53.776512994117	102
3	796	53.776512994117	103
3	796	53.776512994117	104
3	820	54.864864999461	105
3	820	54.864864999461	106
3	820	54.864864999461	107
3	842	56.101567602215	108
3	842	56.101567602215	109
3	842	56.101567602215	110
3	862	57.906238118536	111
3	862	57.906238118536	112
3	862	57.906238118536	113
3	886	59.899677162665	114
3	886	59.899677162665	115
3	886	59.899677162665	116
3	908	61.032271225892	117
3	908	61.032271225892	118
3	908	61.032271225892	119
3	931	62.852126458675	120
3	931	62.852126458675	121
3	931	62.852126458675	122
3	958	64.033190730177	123
3	958	64.033190730177	124
3	958	64.033190730177	125
3	978	65.233171625386	126
3	978	65.233171625386	127
3	978	65.233171625386	128
3	1000	66.855133590002	129
3	1000	66.855133590002	130
3	1000	66.855133590002	131
3	1023	68.431643763541	132
3	1023	68.431643763541	133
3	1023	68.431643763541	134
3	1049	70.154886997276	135
3	1049	70.154886997276	136
3	1049	70.154886997276	137
3	1069	71.27119734538	138
3	1069	71.27119734538	139
3	1069	71.27119734538	140
3	1101	72.425031569414	141
3	1101	72.425031569414	142
3	1101	72.425031569414	143
3	1119	73.86534473378	144
3	1119	73.86534473378	145
3	1119	73.86534473378	146
3	1138	74.97460955546	147
3	1138	74.97460955546	148
3	1138	74.97460955546	149
3	1161	76.730792832239	150
3	1161	76.730792832239	151
3	1161	76.730792832239	152
3	1193	78.316065076132	153
3	1193	78.316065076132	154
3	1193	78.316065076132	155
3	1208	80.142400814904	156
3	1208	80.142400814904	157
3	1208	80.142400814904	158
3	1230	81.803246793523	159
3	1230	81.803246793523	160
3	1230	81.803246793523	161
3	1253	82.929767887542	162
3	1253	82.929767887542	163
3	1253	82.929767887542	164
3	1286	85.91567730663	165
3	1286	85.91567730663	166
3	1286	85.91567730663	167
3	1307	87.702010648862	168
3	1307	87.702010648862	169
3	1307	87.702010648862	170
3	1324	88.757260786545	171
3	1324	88.757260786545	172
3	1324	88.757260786545	173
3	1347	89.827977915781	174
3	1347	89.827977915781	175
3	1347	89.827977915781	176
3	1376	91.692731313788	177
3	1376	91.692731313788	178
3	1376	91.692731313788	179
3	1402	93.229866834396	180
3	1402	93.229866834396	181
3	1402	93.229866834396	182
3	1416	94.448782251169	183
3	1416	94.448782251169	184
3	1416	94.448782251169	185
3	1439	95.915497689731	186
3	1439	95.915497689731	187
3	1439	95.915497689731	188
3	1474	97.755974503352	189
3	1474	97.755974503352	190
3	1474	97.755974503352	191
3	1493	99.439280450628	192
3	1493	99.439280450628	193
3	1493	99.439280450628	194
3	1508	100.395199249317	195
3	1508	100.395199249317	196
3	1508	100.395199249317	197
3	1536	101.915421454047	198
3	1536	101.915421454047	199
3	1536	101.915421454047	200
3	1554	103.209400713644	201
3	1554	103.209400713644	202
3	1554	103.209400713644	203
3	1577	104.366514644039	204
3	1577	104.366514644039	205
3	1577	104.366514644039	206
3	1600	105.740803273392	207
3	1600	105.740803273392	208
3	1600	105.740803273392	209
3	1623	106.813268775849	210
3	1623	106.813268775849	211
3	1623	106.813268775849	212
3	1646	108.508151743685	213
3	1646	108.508151743685	214
3	1646	108.508151743685	215
3	1669	109.916734929031	216
3	1669	109.916734929031	217
3	1669	109.916734929031	218
3	1693	111.579156974729	219
3	1693	111.579156974729	220
3	1693	111.579156974729	221
3	1718	114.914794104928	222
3	1718	114.914794104928	223
3	1718	114.914794104928	224
3	1745	116.927768763837	225
3	1745	116.927768763837	226
3	1745	116.927768763837	227
3	1763	118.288001850472	228
3	1763	118.288001850472	229
3	1763	118.288001850472	230
3	1787	119.98688115258	231
3	1787	119.98688115258	232
3	1787	119.98688115258	233
3	1810	121.046430178141	234
3	1810	121.046430178141	235
3	1810	121.046430178141	236
3	1831	122.980035754198	237
3	1831	122.980035754198	238
3	1831	122.980035754198	239
3	1852	123.981027475791	240
3	1852	123.981027475791	241
3	1852	123.981027475791	242
3	1880	125.117798138821	243
3	1880	125.117798138821	244
3	1880	125.117798138821	245
3	1906	126.526836193392	246
3	1906	126.526836193392	247
3	1906	126.526836193392	248
3	1929	128.337966997922	249
3	1929	128.337966997922	250
3	1929	128.337966997922	251
3	1944	130.038356514332	252
3	1944	130.038356514332	253
3	1944	130.038356514332	254
3	1966	132.014622150891	255
3	1966	132.014622150891	256
3	1966	132.014622150891	257
3	1989	133.831744859098	258
3	1989	133.831744859098	259
3	1989	133.831744859098	260
3	2012	135.107223075483	261
3	2012	135.107223075483	262
3	2012	135.107223075483	263
3	2036	136.542904230735	264
3	2036	136.542904230735	265
3	2036	136.542904230735	266
3	2065	137.600387483578	267
3	2065	137.600387483578	268
3	2065	137.600387483578	269
3	2089	139.052084274629	270
3	2089	139.052084274629	271
3	2089	139.052084274629	272
3	2107	140.160367466536	273
3	2107	140.160367466536	274
3	2107	140.160367466536	275
3	2127	141.539737673154	276
3	2127	141.539737673154	277
3	2127	141.539737673154	278
3	2150	143.355475092666	279
3	2150	143.355475092666	280
3	2150	143.355475092666	281
3	2177	144.449622692032	282
3	2177	144.449622692032	283
3	2177	144.449622692032	284
3	2205	145.577120142018	285
3	2205	145.577120142018	286
3	2205	145.577120142018	287
3	2219	147.144258640526	288
3	2219	147.144258640526	289
3	2219	147.144258640526	290
3	2242	148.997106139954	291
3	2242	148.997106139954	292
3	2242	148.997106139954	293
3	2265	150.841689515705	294
3	2265	150.841689515705	295
3	2265	150.841689515705	296
3	2288	152.119012950885	297
3	2288	152.119012950885	298
3	2288	152.119012950885	299
3	2313	153.58766169065	300
3	2313	153.58766169065	301
3	2313	153.58766169065	302
3	2336	155.514854068623	303
3	2336	155.514854068623	304
3	2336	155.514854068623	305
3	2362	157.332990758022	306
3	2362	157.332990758022	307
3	2362	157.332990758022	308
3	2388	159.084004417257	309
3	2388	159.084004417257	310
3	2388	159.084004417257	311
3	2403	160.938391381912	312
3	2403	160.938391381912	313
3	2403	160.938391381912	314
3	2428	162.571614444267	315
3	2428	162.571614444267	316
3	2428	162.571614444267	317
3	2452	165.87795413415	318
3	2452	165.87795413415	319
3	2452	165.87795413415	320
3	2474	167.431799689522	321
3	2474	167.431799689522	322
3	2474	167.431799689522	323
3	2498	168.938070078959	324
3	2498	168.938070078959	325
3	2498	168.938070078959	326
3	2520	170.62857098428	327
3	2520	170.62857098428	328
3	2520	170.62857098428	329
3	2544	172.056206902402	330
3	2544	172.056206902402	331
3	2544	172.056206902402	332
3	2566	173.091927140942	333
3	2566	173.091927140942	334
3	2566	173.091927140942	335
3	2590	174.669451994332	336
3	2590	174.669451994332	337
3	2590	174.669451994332	338
3	2618	176.587778356052	339
3	2618	176.587778356052	340
3	2618	176.587778356052	341
3	2636	178.172785238033	342
3	2636	178.172785238033	343
3	2636	178.172785238033	344
3	2658	179.36478824611	345
3	2658	179.36478824611	346
3	2658	179.36478824611	347
3	2682	180.37863106439	348
3	2682	180.37863106439	349
3	2682	180.37863106439	350
3	2716	181.943461881063	351
3	2716	181.943461881063	352
3	2716	181.943461881063	353
3	2727	183.558499543046	354
3	2727	183.558499543046	355
3	2727	183.558499543046	356
3	2757	189.881825817642	357
3	2757	189.881825817642	358
3	2757	189.881825817642	359
3	2782	192.451754409492	360
3	2782	192.451754409492	361
3	2782	192.451754409492	362
3	2806	193.761480607951	363
3	2806	193.761480607951	364
3	2806	193.761480607951	365
3	2829	195.136025472797	366
3	2829	195.136025472797	367
3	2829	195.136025472797	368
3	2853	198.024064127527	369
3	2853	198.024064127527	370
3	2853	198.024064127527	371
3	2883	199.45216140396	372
3	2883	199.45216140396	373
3	2883	199.45216140396	374
3	2898	201.320141071284	375
3	2898	201.320141071284	376
3	2898	201.320141071284	377
3	2921	202.703194990403	378
3	2921	202.703194990403	379
3	2921	202.703194990403	380
3	2946	205.023924800394	381
3	2946	205.023924800394	382
3	2946	205.023924800394	383
3	2971	206.320174350403	384
3	2971	206.320174350403	385
3	2971	206.320174350403	386
3	3000	207.444209162292	387
3	3000	207.444209162292	388
3	3000	207.444209162292	389
3	3015	209.027470275454	390
3	3015	209.027470275454	391
3	3015	209.027470275454	392
3	3040	211.714910174943	393
3	3040	211.714910174943	394
3	3040	211.714910174943	395
3	3063	213.652981356518	396
3	3063	213.652981356518	397
3	3063	213.652981356518	398
3	3089	216.27590763734	399
3	3089	216.27590763734	400
3	3089	216.27590763734	401
3	3116	217.925887655296	402
3	3116	217.925887655296	403
3	3116	217.925887655296	404
3	3137	219.578164187199	405
3	3137	219.578164187199	406
3	3137	219.578164187199	407
3	3157	220.749635427755	408
3	3157	220.749635427755	409
3	3157	220.749635427755	410
3	3186	222.542867669278	411
3	3186	222.542867669278	412
3	3186	222.542867669278	413
3	3200	223.715036027189	414
3	3200	223.715036027189	415
3	3200	223.715036027189	416
3	3223	225.615265471323	417
3	3223	225.615265471323	418
3	3223	225.615265471323	419
3	3247	226.639801531461	420
3	3247	226.639801531461	421
3	3247	226.639801531461	422
3	3269	228.217735658175	423
3	3269	228.217735658175	424
3	3269	228.217735658175	425
3	3301	229.508364815687	426
3	3301	229.508364815687	427
3	3301	229.508364815687	428
3	3315	231.107183977904	429
3	3315	231.107183977904	430
3	3315	231.107183977904	431
3	3347	233.1200933374	432
3	3347	233.1200933374	433
3	3347	233.1200933374	434
3	3373	234.720321344731	435
3	3373	234.720321344731	436
3	3373	234.720321344731	437
3	3384	236.438664620293	438
3	3384	236.438664620293	439
3	3384	236.438664620293	440
3	3408	237.614007538762	441
3	3408	237.614007538762	442
3	3408	237.614007538762	443
3	3436	238.86688986829	444
3	3436	238.86688986829	445
3	3436	238.86688986829	446
4	10	0.139799085561	0
4	10	0.139799085561	1
4	10	0.139799085561	2
4	10	0.139799085561	3
4	35	2.14850032361	4
4	35	2.14850032361	5
4	35	2.14850032361	6
4	35	2.14850032361	7
4	55	3.331786336882	8
4	55	3.331786336882	9
4	55	3.331786336882	10
4	55	3.331786336882	11
4	77	4.845942825286	12
4	77	4.845942825286	13
4	77	4.845942825286	14
4	77	4.845942825286	15
4	101	6.169301046022	16
4	101	6.169301046022	17
4	101	6.169301046022	18
4	101	6.169301046022	19
4	124	7.260367223119	20
4	124	7.260367223119	21
4	124	7.260367223119	22
4	124	7.260367223119	23
4	146	8.839299470222	24
4	146	8.839299470222	25
4	146	8.839299470222	26
4	146	8.839299470222	27
4	171	10.741450189045	28
4	171	10.741450189045	29
4	171	10.741450189045	30
4	171	10.741450189045	31
4	192	12.367965268757	32
4	192	12.367965268757	33
4	192	12.367965268757	34
4	192	12.367965268757	35
4	218	13.724357301812	36
4	218	13.724357301812	37
4	218	13.724357301812	38
4	218	13.724357301812	39
4	242	15.615155908577	40
4	242	15.615155908577	41
4	242	15.615155908577	42
4	242	15.615155908577	43
4	261	17.111194035027	44
4	261	17.111194035027	45
4	261	17.111194035027	46
4	261	17.111194035027	47
4	286	18.957988815707	48
4	286	18.957988815707	49
4	286	18.957988815707	50
4	286	18.957988815707	51
4	309	20.740219310893	52
4	309	20.740219310893	53
4	309	20.740219310893	54
4	309	20.740219310893	55
4	332	21.816531032219	56
4	332	21.816531032219	57
4	332	21.816531032219	58
4	332	21.816531032219	59
4	361	23.011972726438	60
4	361	23.011972726438	61
4	361	23.011972726438	62
4	361	23.011972726438	63
4	377	24.37103317615	64
4	377	24.37103317615	65
4	377	24.37103317615	66
4	377	24.37103317615	67
4	400	25.471383281291	68
4	400	25.471383281291	69
4	400	25.471383281291	70
4	400	25.471383281291	71
4	422	26.490088237131	72
4	422	26.490088237131	73
4	422	26.490088237131	74
4	422	26.490088237131	75
4	445	27.929477783266	76
4	445	27.929477783266	77
4	445	27.929477783266	78
4	445	27.929477783266	79
4	468	28.943181031533	80
4	468	28.943181031533	81
4	468	28.943181031533	82
4	468	28.943181031533	83
4	492	30.376454511228	84
4	492	30.376454511228	85
4	492	30.376454511228	86
4	492	30.376454511228	87
4	515	31.953657197353	88
4	515	31.953657197353	89
4	515	31.953657197353	90
4	515	31.953657197353	91
4	539	33.041215932205	92
4	539	33.041215932205	93
4	539	33.041215932205	94
4	539	33.041215932205	95
4	560	34.364403887352	96
4	560	34.364403887352	97
4	560	34.364403887352	98
4	560	34.364403887352	99
4	587	38.943286862104	100
4	587	38.943286862104	101
4	587	38.943286862104	102
4	587	38.943286862104	103
4	610	40.45942235012	104
4	610	40.45942235012	105
4	610	40.45942235012	106
4	610	40.45942235012	107
4	634	41.526190463207	108
4	634	41.526190463207	109
4	634	41.526190463207	110
4	634	41.526190463207	111
4	657	42.643060085484	112
4	657	42.643060085484	113
4	657	42.643060085484	114
4	657	42.643060085484	115
4	680	44.446227607882	116
4	680	44.446227607882	117
4	680	44.446227607882	118
4	680	44.446227607882	119
4	706	45.772512408037	120
4	706	45.772512408037	121
4	706	45.772512408037	122
4	706	45.772512408037	123
4	725	47.159950582131	124
4	725	47.159950582131	125
4	725	47.159950582131	126
4	725	47.159950582131	127
4	750	51.038623268173	128
4	750	51.038623268173	129
4	750	51.038623268173	130
4	750	51.038623268173	131
4	774	52.576890990301	132
4	774	52.576890990301	133
4	774	52.576890990301	134
4	774	52.576890990301	135
4	798	53.783213450353	136
4	798	53.783213450353	137
4	798	53.783213450353	138
4	798	53.783213450353	139
4	823	54.870891271693	140
4	823	54.870891271693	141
4	823	54.870891271693	142
4	823	54.870891271693	143
4	850	56.128393825918	144
4	850	56.128393825918	145
4	850	56.128393825918	146
4	850	56.128393825918	147
4	863	57.906280361089	148
4	863	57.906280361089	149
4	863	57.906280361089	150
4	863	57.906280361089	151
4	893	59.916942575608	152
4	893	59.916942575608	153
4	893	59.916942575608	154
4	893	59.916942575608	155
4	919	61.065860680559	156
4	919	61.065860680559	157
4	919	61.065860680559	158
4	919	61.065860680559	159
4	932	62.857628131524	160
4	932	62.857628131524	161
4	932	62.857628131524	162
4	932	62.857628131524	163
4	957	64.023643714657	164
4	957	64.023643714657	165
4	957	64.023643714657	166
4	957	64.023643714657	167
4	988	65.25655859476	168
4	988	65.25655859476	169
4	988	65.25655859476	170
4	988	65.25655859476	171
4	1002	66.856804528823	172
4	1002	66.856804528823	173
4	1002	66.856804528823	174
4	1002	66.856804528823	175
4	1024	68.43305911532	176
4	1024	68.43305911532	177
4	1024	68.43305911532	178
4	1024	68.43305911532	179
4	1054	70.168996115138	180
4	1054	70.168996115138	181
4	1054	70.168996115138	182
4	1054	70.168996115138	183
4	1070	71.271561996585	184
4	1070	71.271561996585	185
4	1070	71.271561996585	186
4	1070	71.271561996585	187
4	1092	72.41094137329	188
4	1092	72.41094137329	189
4	1092	72.41094137329	190
4	1092	72.41094137329	191
4	1116	73.856561880644	192
4	1116	73.856561880644	193
4	1116	73.856561880644	194
4	1116	73.856561880644	195
4	1143	74.984895412704	196
4	1143	74.984895412704	197
4	1143	74.984895412704	198
4	1143	74.984895412704	199
4	1163	76.733528425591	200
4	1163	76.733528425591	201
4	1163	76.733528425591	202
4	1163	76.733528425591	203
4	1187	78.29926734071	204
4	1187	78.29926734071	205
4	1187	78.29926734071	206
4	1187	78.29926734071	207
4	1215	80.162733230769	208
4	1215	80.162733230769	209
4	1215	80.162733230769	210
4	1215	80.162733230769	211
4	1235	81.815510808569	212
4	1235	81.815510808569	213
4	1235	81.815510808569	214
4	1235	81.815510808569	215
4	1254	82.934326178128	216
4	1254	82.934326178128	217
4	1254	82.934326178128	218
4	1254	82.934326178128	219
4	1279	85.899740898913	220
4	1279	85.899740898913	221
4	1279	85.899740898913	222
4	1279	85.899740898913	223
4	1301	87.688282727815	224
4	1301	87.688282727815	225
4	1301	87.688282727815	226
4	1301	87.688282727815	227
4	1329	88.769110122595	228
4	1329	88.769110122595	229
4	1329	88.769110122595	230
4	1329	88.769110122595	231
4	1348	89.836109509828	232
4	1348	89.836109509828	233
4	1348	89.836109509828	234
4	1348	89.836109509828	235
4	1370	91.682718572844	236
4	1370	91.682718572844	237
4	1370	91.682718572844	238
4	1370	91.682718572844	239
4	1394	93.210196825579	240
4	1394	93.210196825579	241
4	1394	93.210196825579	242
4	1394	93.210196825579	243
4	1417	94.450097701999	244
4	1417	94.450097701999	245
4	1417	94.450097701999	246
4	1417	94.450097701999	247
4	1446	95.944120372453	248
4	1446	95.944120372453	249
4	1446	95.944120372453	250
4	1446	95.944120372453	251
4	1463	97.716559159372	252
4	1463	97.716559159372	253
4	1463	97.716559159372	254
4	1463	97.716559159372	255
4	1488	99.423681188557	256
4	1488	99.423681188557	257
4	1488	99.423681188557	258
4	1488	99.423681188557	259
4	1513	100.411066217385	260
4	1513	100.411066217385	261
4	1513	100.411066217385	262
4	1513	100.411066217385	263
4	1531	101.905280428708	264
4	1531	101.905280428708	265
4	1531	101.905280428708	266
4	1531	101.905280428708	267
4	1555	103.211389412443	268
4	1555	103.211389412443	269
4	1555	103.211389412443	270
4	1555	103.211389412443	271
4	1578	104.367578836849	272
4	1578	104.367578836849	273
4	1578	104.367578836849	274
4	1578	104.367578836849	275
4	1605	105.759606441119	276
4	1605	105.759606441119	277
4	1605	105.759606441119	278
4	1605	105.759606441119	279
4	1627	106.831068288228	280
4	1627	106.831068288228	281
4	1627	106.831068288228	282
4	1627	106.831068288228	283
4	1654	108.522802654793	284
4	1654	108.522802654793	285
4	1654	108.522802654793	286
4	1654	108.522802654793	287
4	1674	109.931899972057	288
4	1674	109.931899972057	289
4	1674	109.931899972057	290
4	1674	109.931899972057	291
4	1692	111.57537952479	292
4	1692	111.57537952479	293
4	1692	111.57537952479	294
4	1692	111.57537952479	295
4	1717	114.908438178783	296
4	1717	114.908438178783	297
4	1717	114.908438178783	298
4	1717	114.908438178783	299
4	1740	116.916699518389	300
4	1740	116.916699518389	301
4	1740	116.916699518389	302
4	1740	116.916699518389	303
4	1764	118.288917307784	304
4	1764	118.288917307784	305
4	1764	118.288917307784	306
4	1764	118.288917307784	307
4	1786	119.985356584702	308
4	1786	119.985356584702	309
4	1786	119.985356584702	310
4	1786	119.985356584702	311
4	1809	121.04578543484	312
4	1809	121.04578543484	313
4	1809	121.04578543484	314
4	1809	121.04578543484	315
4	1836	122.99884220646	316
4	1836	122.99884220646	317
4	1836	122.99884220646	318
4	1836	122.99884220646	319
4	1851	123.975691637127	320
4	1851	123.975691637127	321
4	1851	123.975691637127	322
4	1851	123.975691637127	323
4	1874	125.107777339065	324
4	1874	125.107777339065	325
4	1874	125.107777339065	326
4	1874	125.107777339065	327
4	1898	126.515180321933	328
4	1898	126.515180321933	329
4	1898	126.515180321933	330
4	1898	126.515180321933	331
4	1920	128.295830565654	332
4	1920	128.295830565654	333
4	1920	128.295830565654	334
4	1920	128.295830565654	335
4	1945	130.041810971541	336
4	1945	130.041810971541	337
4	1945	130.041810971541	338
4	1945	130.041810971541	339
4	1974	132.033097778755	340
4	1974	132.033097778755	341
4	1974	132.033097778755	342
4	1974	132.033097778755	343
4	1990	133.836698193291	344
4	1990	133.836698193291	345
4	1990	133.836698193291	346
4	1990	133.836698193291	347
4	2013	135.10916638359	348
4	2013	135.10916638359	349
4	2013	135.10916638359	350
4	2013	135.10916638359	351
4	2035	136.538501760093	352
4	2035	136.538501760093	353
4	2035	136.538501760093	354
4	2035	136.538501760093	355
4	2058	137.58738478965	356
4	2058	137.58738478965	357
4	2058	137.58738478965	358
4	2058	137.58738478965	359
4	2081	139.013279395172	360
4	2081	139.013279395172	361
4	2081	139.013279395172	362
4	2081	139.013279395172	363
4	2111	140.177113495225	364
4	2111	140.177113495225	365
4	2111	140.177113495225	366
4	2111	140.177113495225	367
4	2129	141.546630409647	368
4	2129	141.546630409647	369
4	2129	141.546630409647	370
4	2129	141.546630409647	371
4	2155	143.370156442279	372
4	2155	143.370156442279	373
4	2155	143.370156442279	374
4	2155	143.370156442279	375
4	2174	144.439947187068	376
4	2174	144.439947187068	377
4	2174	144.439947187068	378
4	2174	144.439947187068	379
4	2197	145.561390295529	380
4	2197	145.561390295529	381
4	2197	145.561390295529	382
4	2197	145.561390295529	383
4	2220	147.153531708838	384
4	2220	147.153531708838	385
4	2220	147.153531708838	386
4	2220	147.153531708838	387
4	2243	149.000504721952	388
4	2243	149.000504721952	389
4	2243	149.000504721952	390
4	2243	149.000504721952	391
4	2269	150.862705761824	392
4	2269	150.862705761824	393
4	2269	150.862705761824	394
4	2269	150.862705761824	395
4	2289	152.124219350767	396
4	2289	152.124219350767	397
4	2289	152.124219350767	398
4	2289	152.124219350767	399
4	2312	153.584220823174	400
4	2312	153.584220823174	401
4	2312	153.584220823174	402
4	2312	153.584220823174	403
4	2335	155.512333231025	404
4	2335	155.512333231025	405
4	2335	155.512333231025	406
4	2335	155.512333231025	407
4	2357	157.322926888333	408
4	2357	157.322926888333	409
4	2357	157.322926888333	410
4	2357	157.322926888333	411
4	2383	159.072547050851	412
4	2383	159.072547050851	413
4	2383	159.072547050851	414
4	2383	159.072547050851	415
4	2407	160.952092605786	416
4	2407	160.952092605786	417
4	2407	160.952092605786	418
4	2407	160.952092605786	419
4	2426	162.56776424816	420
4	2426	162.56776424816	421
4	2426	162.56776424816	422
4	2426	162.56776424816	423
4	2453	165.882486187999	424
4	2453	165.882486187999	425
4	2453	165.882486187999	426
4	2453	165.882486187999	427
4	2478	167.445065443804	428
4	2478	167.445065443804	429
4	2478	167.445065443804	430
4	2478	167.445065443804	431
4	2505	168.970296013906	432
4	2505	168.970296013906	433
4	2505	168.970296013906	434
4	2505	168.970296013906	435
4	2521	170.629431123945	436
4	2521	170.629431123945	437
4	2521	170.629431123945	438
4	2521	170.629431123945	439
4	2543	172.049665907047	440
4	2543	172.049665907047	441
4	2543	172.049665907047	442
4	2543	172.049665907047	443
4	2570	173.103002914821	444
4	2570	173.103002914821	445
4	2570	173.103002914821	446
4	2570	173.103002914821	447
4	2589	174.665176731981	448
4	2589	174.665176731981	449
4	2589	174.665176731981	450
4	2589	174.665176731981	451
4	2612	176.5771333196	452
4	2612	176.5771333196	453
4	2612	176.5771333196	454
4	2612	176.5771333196	455
4	2635	178.170702474657	456
4	2635	178.170702474657	457
4	2635	178.170702474657	458
4	2635	178.170702474657	459
4	2660	179.374654907576	460
4	2660	179.374654907576	461
4	2660	179.374654907576	462
4	2660	179.374654907576	463
4	2683	180.382298838335	464
4	2683	180.382298838335	465
4	2683	180.382298838335	466
4	2683	180.382298838335	467
4	2707	181.921039656937	468
4	2707	181.921039656937	469
4	2707	181.921039656937	470
4	2707	181.921039656937	471
4	2738	183.592904210867	472
4	2738	183.592904210867	473
4	2738	183.592904210867	474
4	2738	183.592904210867	475
4	2760	189.888703457522	476
4	2760	189.888703457522	477
4	2760	189.888703457522	478
4	2760	189.888703457522	479
4	2789	192.465742628276	480
4	2789	192.465742628276	481
4	2789	192.465742628276	482
4	2789	192.465742628276	483
4	2804	193.75375371206	484
4	2804	193.75375371206	485
4	2804	193.75375371206	486
4	2804	193.75375371206	487
4	2827	195.129394735646	488
4	2827	195.129394735646	489
4	2827	195.129394735646	490
4	2827	195.129394735646	491
4	2863	198.048304497937	492
4	2863	198.048304497937	493
4	2863	198.048304497937	494
4	2863	198.048304497937	495
4	2876	199.433357548315	496
4	2876	199.433357548315	497
4	2876	199.433357548315	498
4	2876	199.433357548315	499
4	2899	201.322631474343	500
4	2899	201.322631474343	501
4	2899	201.322631474343	502
4	2899	201.322631474343	503
4	2928	202.728553419265	504
4	2928	202.728553419265	505
4	2928	202.728553419265	506
4	2928	202.728553419265	507
4	2947	205.024273629546	508
4	2947	205.024273629546	509
4	2947	205.024273629546	510
4	2947	205.024273629546	511
4	2969	206.311340751362	512
4	2969	206.311340751362	513
4	2969	206.311340751362	514
4	2969	206.311340751362	515
4	2992	207.417798336381	516
4	2992	207.417798336381	517
4	2992	207.417798336381	518
4	2992	207.417798336381	519
4	3016	209.028552905604	520
4	3016	209.028552905604	521
4	3016	209.028552905604	522
4	3016	209.028552905604	523
4	3045	211.73343676557	524
4	3045	211.73343676557	525
4	3045	211.73343676557	526
4	3045	211.73343676557	527
4	3065	213.655822780834	528
4	3065	213.655822780834	529
4	3065	213.655822780834	530
4	3065	213.655822780834	531
4	3088	216.267867292046	532
4	3088	216.267867292046	533
4	3088	216.267867292046	534
4	3088	216.267867292046	535
4	3111	217.910779605357	536
4	3111	217.910779605357	537
4	3111	217.910779605357	538
4	3111	217.910779605357	539
4	3145	219.599641103368	540
4	3145	219.599641103368	541
4	3145	219.599641103368	542
4	3145	219.599641103368	543
4	3158	220.755064913426	544
4	3158	220.755064913426	545
4	3158	220.755064913426	546
4	3158	220.755064913426	547
4	3178	222.515417245606	548
4	3178	222.515417245606	549
4	3178	222.515417245606	550
4	3178	222.515417245606	551
4	3207	223.743330119061	552
4	3207	223.743330119061	553
4	3207	223.743330119061	554
4	3207	223.743330119061	555
4	3231	225.633334970231	556
4	3231	225.633334970231	557
4	3231	225.633334970231	558
4	3231	225.633334970231	559
4	3248	226.641971477858	560
4	3248	226.641971477858	561
4	3248	226.641971477858	562
4	3248	226.641971477858	563
4	3270	228.223111843331	564
4	3270	228.223111843331	565
4	3270	228.223111843331	566
4	3270	228.223111843331	567
4	3295	229.494454854534	568
4	3295	229.494454854534	569
4	3295	229.494454854534	570
4	3295	229.494454854534	571
4	3316	231.108094216388	572
4	3316	231.108094216388	573
4	3316	231.108094216388	574
4	3316	231.108094216388	575
4	3339	233.105229676984	576
4	3339	233.105229676984	577
4	3339	233.105229676984	578
4	3339	233.105229676984	579
4	3362	234.695257002889	580
4	3362	234.695257002889	581
4	3362	234.695257002889	582
4	3362	234.695257002889	583
4	3393	236.475617169132	584
4	3393	236.475617169132	585
4	3393	236.475617169132	586
4	3393	236.475617169132	587
4	3407	237.613616639821	588
4	3407	237.613616639821	589
4	3407	237.613616639821	590
4	3407	237.613616639821	591
4	3430	238.852753291335	592
4	3430	238.852753291335	593
4	3430	238.852753291335	594
4	3430	238.852753291335	595
5	20	0.152840579379	0
5	20	0.152840579379	1
5	20	0.152840579379	2
5	43	2.163635091475	3
5	43	2.163635091475	4
5	43	2.163635091475	5
5	64	3.34233117391	6
5	64	3.34233117391	7
5	64	3.34233117391	8
5	86	4.869732662897	9
5	86	4.869732662897	10
5	86	4.869732662897	11
5	112	6.202233067094	12
5	112	6.202233067094	13
5	112	6.202233067094	14
5	131	7.270831283317	15
5	131	7.270831283317	16
5	131	7.270831283317	17
5	158	8.875542340723	18
5	158	8.875542340723	19
5	158	8.875542340723	20
5	175	10.741569602739	21
5	175	10.741569602739	22
5	175	10.741569602739	23
5	200	12.38756625609	24
5	200	12.38756625609	25
5	200	12.38756625609	26
5	227	13.74793494724	27
5	227	13.74793494724	28
5	227	13.74793494724	29
5	246	15.623141956511	30
5	246	15.623141956511	31
5	246	15.623141956511	32
5	273	17.138167025469	33
5	273	17.138167025469	34
5	273	17.138167025469	35
5	296	18.968276820681	36
5	296	18.968276820681	37
5	296	18.968276820681	38
5	319	20.775698506398	39
5	319	20.775698506398	40
5	319	20.775698506398	41
5	342	21.834335541403	42
5	342	21.834335541403	43
5	342	21.834335541403	44
5	360	23.004123784015	45
5	360	23.004123784015	46
5	360	23.004123784015	47
5	381	24.378951466032	48
5	381	24.378951466032	49
5	381	24.378951466032	50
5	404	25.472412528066	51
5	404	25.472412528066	52
5	404	25.472412528066	53
5	434	26.557663995022	54
5	434	26.557663995022	55
5	434	26.557663995022	56
5	453	27.94385639599	57
5	453	27.94385639599	58
5	453	27.94385639599	59
5	480	28.962182287652	60
5	480	28.962182287652	61
5	480	28.962182287652	62
5	500	30.386458532267	63
5	500	30.386458532267	64
5	500	30.386458532267	65
5	526	31.97697316336	66
5	526	31.97697316336	67
5	526	31.97697316336	68
5	549	33.057746183958	69
5	549	33.057746183958	70
5	549	33.057746183958	71
5	567	34.381693579047	72
5	567	34.381693579047	73
5	567	34.381693579047	74
5	596	38.965517811594	75
5	596	38.965517811594	76
5	596	38.965517811594	77
5	622	40.478399784721	78
5	622	40.478399784721	79
5	622	40.478399784721	80
5	639	41.532796639114	81
5	639	41.532796639114	82
5	639	41.532796639114	83
5	668	42.665113690122	84
5	668	42.665113690122	85
5	668	42.665113690122	86
5	691	44.461708496424	87
5	691	44.461708496424	88
5	691	44.461708496424	89
5	714	45.785198567517	90
5	714	45.785198567517	91
5	714	45.785198567517	92
5	734	47.172220313927	93
5	734	47.172220313927	94
5	734	47.172220313927	95
5	760	51.060365535917	96
5	760	51.060365535917	97
5	760	51.060365535917	98
5	782	52.599800109268	99
5	782	52.599800109268	100
5	782	52.599800109268	101
5	808	53.802807405416	102
5	808	53.802807405416	103
5	808	53.802807405416	104
5	831	54.880999549633	105
5	831	54.880999549633	106
5	831	54.880999549633	107
5	846	56.112258155877	108
5	846	56.112258155877	109
5	846	56.112258155877	110
5	874	57.931398945459	111
5	874	57.931398945459	112
5	874	57.931398945459	113
5	892	59.91682289978	114
5	892	59.91682289978	115
5	892	59.91682289978	116
5	915	61.047394054901	117
5	915	61.047394054901	118
5	915	61.047394054901	119
5	940	62.869090708732	120
5	940	62.869090708732	121
5	940	62.869090708732	122
5	966	64.053268432402	123
5	966	64.053268432402	124
5	966	64.053268432402	125
5	984	65.244938256141	126
5	984	65.244938256141	127
5	984	65.244938256141	128
5	1012	66.867054471465	129
5	1012	66.867054471465	130
5	1012	66.867054471465	131
5	1033	68.450378327807	132
5	1033	68.450378327807	133
5	1033	68.450378327807	134
5	1053	70.165563061147	135
5	1053	70.165563061147	136
5	1053	70.165563061147	137
5	1079	71.285180544708	138
5	1079	71.285180544708	139
5	1079	71.285180544708	140
5	1098	72.423428990273	141
5	1098	72.423428990273	142
5	1098	72.423428990273	143
5	1127	73.893482247792	144
5	1127	73.893482247792	145
5	1127	73.893482247792	146
5	1150	75.002352655583	147
5	1150	75.002352655583	148
5	1150	75.002352655583	149
5	1173	76.750357798863	150
5	1173	76.750357798863	151
5	1173	76.750357798863	152
5	1192	78.312451487458	153
5	1192	78.312451487458	154
5	1192	78.312451487458	155
5	1214	80.153120980585	156
5	1214	80.153120980585	157
5	1214	80.153120980585	158
5	1236	81.818888736765	159
5	1236	81.818888736765	160
5	1236	81.818888736765	161
5	1265	82.966115924784	162
5	1265	82.966115924784	163
5	1265	82.966115924784	164
5	1287	85.922505307226	165
5	1287	85.922505307226	166
5	1287	85.922505307226	167
5	1313	87.713608645753	168
5	1313	87.713608645753	169
5	1313	87.713608645753	170
5	1336	88.78149850804	171
5	1336	88.78149850804	172
5	1336	88.78149850804	173
5	1353	89.843349681999	174
5	1353	89.843349681999	175
5	1353	89.843349681999	176
5	1377	91.697857976311	177
5	1377	91.697857976311	178
5	1377	91.697857976311	179
5	1401	93.221499667416	180
5	1401	93.221499667416	181
5	1401	93.221499667416	182
5	1426	94.465079202797	183
5	1426	94.465079202797	184
5	1426	94.465079202797	185
5	1447	95.945906185712	186
5	1447	95.945906185712	187
5	1447	95.945906185712	188
5	1470	97.734932368965	189
5	1470	97.734932368965	190
5	1470	97.734932368965	191
5	1497	99.46890961395	192
5	1497	99.46890961395	193
5	1497	99.46890961395	194
5	1514	100.416702460781	195
5	1514	100.416702460781	196
5	1514	100.416702460781	197
5	1543	101.948944016787	198
5	1543	101.948944016787	199
5	1543	101.948944016787	200
5	1566	103.224625007137	201
5	1566	103.224625007137	202
5	1566	103.224625007137	203
5	1589	104.386026563434	204
5	1589	104.386026563434	205
5	1589	104.386026563434	206
5	1612	105.773651220975	207
5	1612	105.773651220975	208
5	1612	105.773651220975	209
5	1629	106.837566442343	210
5	1629	106.837566442343	211
5	1629	106.837566442343	212
5	1653	108.522541568225	213
5	1653	108.522541568225	214
5	1653	108.522541568225	215
5	1681	109.955302452416	216
5	1681	109.955302452416	217
5	1681	109.955302452416	218
5	1698	111.588902756002	219
5	1698	111.588902756002	220
5	1698	111.588902756002	221
5	1729	114.943962766635	222
5	1729	114.943962766635	223
5	1729	114.943962766635	224
5	1749	116.940638176623	225
5	1749	116.940638176623	226
5	1749	116.940638176623	227
5	1772	118.312480699537	228
5	1772	118.312480699537	229
5	1772	118.312480699537	230
5	1795	120.010246951361	231
5	1795	120.010246951361	232
5	1795	120.010246951361	233
5	1835	122.996864615924	234
5	1835	122.996864615924	235
5	1835	122.996864615924	236
5	1858	123.985746897797	237
5	1858	123.985746897797	238
5	1858	123.985746897797	239
5	1881	125.119327597956	240
5	1881	125.119327597956	241
5	1881	125.119327597956	242
5	1905	126.525915909043	243
5	1905	126.525915909043	244
5	1905	126.525915909043	245
5	1928	128.330872510843	246
5	1928	128.330872510843	247
5	1928	128.330872510843	248
5	1955	130.053405836091	249
5	1955	130.053405836091	250
5	1955	130.053405836091	251
5	1973	132.032083453369	252
5	1973	132.032083453369	253
5	1973	132.032083453369	254
5	2001	133.870060423213	255
5	2001	133.870060423213	256
5	2001	133.870060423213	257
5	2024	135.129060053182	258
5	2024	135.129060053182	259
5	2024	135.129060053182	260
5	2045	136.560936031824	261
5	2045	136.560936031824	262
5	2045	136.560936031824	263
5	2063	137.598039175643	264
5	2063	137.598039175643	265
5	2063	137.598039175643	266
5	2090	139.0537441326	267
5	2090	139.0537441326	268
5	2090	139.0537441326	269
5	2112	140.179654310608	270
5	2112	140.179654310608	271
5	2112	140.179654310608	272
5	2139	141.557276295107	273
5	2139	141.557276295107	274
5	2139	141.557276295107	275
5	2154	143.366070592188	276
5	2154	143.366070592188	277
5	2154	143.366070592188	278
5	2185	144.469914233537	279
5	2185	144.469914233537	280
5	2185	144.469914233537	281
5	2204	145.571463754383	282
5	2204	145.571463754383	283
5	2204	145.571463754383	284
5	2224	147.154829885737	285
5	2224	147.154829885737	286
5	2224	147.154829885737	287
5	2251	149.012762649581	288
5	2251	149.012762649581	289
5	2251	149.012762649581	290
5	2277	150.886692292204	291
5	2277	150.886692292204	292
5	2277	150.886692292204	293
5	2300	152.140958078826	294
5	2300	152.140958078826	295
5	2300	152.140958078826	296
5	2323	153.600691133035	297
5	2323	153.600691133035	298
5	2323	153.600691133035	299
5	2346	155.52852480468	300
5	2346	155.52852480468	301
5	2346	155.52852480468	302
5	2369	157.350393357961	303
5	2369	157.350393357961	304
5	2369	157.350393357961	305
5	2392	159.101502856561	306
5	2392	159.101502856561	307
5	2392	159.101502856561	308
5	2415	160.969540578233	309
5	2415	160.969540578233	310
5	2415	160.969540578233	311
5	2438	162.583107235309	312
5	2438	162.583107235309	313
5	2438	162.583107235309	314
5	2463	165.896870034468	315
5	2463	165.896870034468	316
5	2463	165.896870034468	317
5	2484	167.460536993819	318
5	2484	167.460536993819	319
5	2484	167.460536993819	320
5	2504	168.963318257767	321
5	2504	168.963318257767	322
5	2504	168.963318257767	323
5	2530	170.647499669779	324
5	2530	170.647499669779	325
5	2530	170.647499669779	326
5	2549	172.061889986889	327
5	2549	172.061889986889	328
5	2549	172.061889986889	329
5	2578	173.113735992286	330
5	2578	173.113735992286	331
5	2578	173.113735992286	332
5	2601	174.697104737011	333
5	2601	174.697104737011	334
5	2601	174.697104737011	335
5	2624	176.598811498123	336
5	2624	176.598811498123	337
5	2624	176.598811498123	338
5	2647	178.185741780141	339
5	2647	178.185741780141	340
5	2647	178.185741780141	341
5	2664	179.375897043998	342
5	2664	179.375897043998	343
5	2664	179.375897043998	344
5	2693	180.399470304502	345
5	2693	180.399470304502	346
5	2693	180.399470304502	347
5	2712	181.932204734674	348
5	2712	181.932204734674	349
5	2712	181.932204734674	350
5	2731	183.57403309032	351
5	2731	183.57403309032	352
5	2731	183.57403309032	353
5	2764	189.894753954937	354
5	2764	189.894753954937	355
5	2764	189.894753954937	356
5	2788	192.462811261827	357
5	2788	192.462811261827	358
5	2788	192.462811261827	359
5	2816	193.810220091189	360
5	2816	193.810220091189	361
5	2816	193.810220091189	362
5	2839	195.156017473831	363
5	2839	195.156017473831	364
5	2839	195.156017473831	365
5	2859	198.035243471858	366
5	2859	198.035243471858	367
5	2859	198.035243471858	368
5	2884	199.452711047902	369
5	2884	199.452711047902	370
5	2884	199.452711047902	371
5	2904	201.331948121832	372
5	2904	201.331948121832	373
5	2904	201.331948121832	374
5	2933	202.739040465679	375
5	2933	202.739040465679	376
5	2933	202.739040465679	377
5	2958	205.046048985163	378
5	2958	205.046048985163	379
5	2958	205.046048985163	380
5	2978	206.328375762108	381
5	2978	206.328375762108	382
5	2978	206.328375762108	383
5	3004	207.462123745578	384
5	3004	207.462123745578	385
5	3004	207.462123745578	386
5	3027	209.077643249012	387
5	3027	209.077643249012	388
5	3027	209.077643249012	389
5	3044	211.730613362441	390
5	3044	211.730613362441	391
5	3044	211.730613362441	392
5	3075	213.667337728837	393
5	3075	213.667337728837	394
5	3075	213.667337728837	395
5	3094	216.281999010012	396
5	3094	216.281999010012	397
5	3094	216.281999010012	398
5	3117	217.927276834943	399
5	3117	217.927276834943	400
5	3117	217.927276834943	401
5	3141	219.589006201316	402
5	3141	219.589006201316	403
5	3141	219.589006201316	404
5	3162	220.764907201231	405
5	3162	220.764907201231	406
5	3162	220.764907201231	407
5	3185	222.535361591371	408
5	3185	222.535361591371	409
5	3185	222.535361591371	410
5	3208	223.74357172986	411
5	3208	223.74357172986	412
5	3208	223.74357172986	413
5	3230	225.62740084937	414
5	3230	225.62740084937	415
5	3230	225.62740084937	416
5	3258	226.672347751765	417
5	3258	226.672347751765	418
5	3258	226.672347751765	419
5	3278	228.237427705711	420
5	3278	228.237427705711	421
5	3278	228.237427705711	422
5	3300	229.505958232906	423
5	3300	229.505958232906	424
5	3300	229.505958232906	425
5	3327	231.11982490785	426
5	3327	231.11982490785	427
5	3327	231.11982490785	428
5	3346	233.116231498317	429
5	3346	233.116231498317	430
5	3346	233.116231498317	431
5	3369	234.706608683222	432
5	3369	234.706608683222	433
5	3369	234.706608683222	434
5	3388	236.464707772952	435
5	3388	236.464707772952	436
5	3388	236.464707772952	437
5	3417	237.631242297735	438
5	3417	237.631242297735	439
5	3417	237.631242297735	440
5	3439	238.869997475874	441
5	3439	238.869997475874	442
5	3439	238.869997475874	443
6	23	0.162840579379	0
6	46	2.173635091475	1
6	69	3.35233117391	2
6	89	4.879732662897	3
6	115	6.212233067094	4
6	134	7.280831283317	5
6	161	8.885542340723	6
6	184	10.751569602739	7
6	204	12.39756625609	8
6	230	13.75793494724	9
6	253	15.633141956511	10
6	276	17.148167025469	11
6	299	18.978276820681	12
6	322	20.785698506398	13
6	345	21.844335541403	14
6	364	23.014123784015	15
6	389	24.388951466032	16
6	411	25.482412528066	17
6	437	26.567663995022	18
6	483	28.972182287652	19
6	503	30.396458532267	20
6	552	33.067746183958	21
6	575	34.391693579047	22
6	602	38.975517811594	23
6	625	40.488399784721	24
6	648	41.542796639114	25
6	671	42.675113690122	26
6	694	44.471708496424	27
6	740	47.182220313927	28
6	765	51.070365535917	29
6	788	52.609800109268	30
6	834	54.890999549633	31
6	849	56.122258155877	32
6	896	59.92682289978	33
6	918	61.057394054901	34
6	943	62.879090708732	35
6	969	64.063268432402	36
6	987	65.254938256141	37
6	1015	66.877054471465	38
6	1038	68.460378327807	39
6	1057	70.175563061147	40
6	1084	71.295180544708	41
6	1104	72.433428990273	42
6	1130	73.903482247792	43
6	1153	75.012352655583	44
6	1176	76.760357798863	45
6	1218	80.163120980585	46
6	1268	82.976115924784	47
6	1293	85.932505307226	48
6	1316	87.723608645753	49
6	1339	88.79149850804	50
6	1362	89.853349681999	51
6	1385	91.707857976311	52
6	1405	93.231499667416	53
6	1431	94.475079202797	54
6	1473	97.744932368965	55
6	1500	99.47890961395	56
6	1523	100.426702460781	57
6	1546	101.958944016787	58
6	1569	103.234625007137	59
6	1592	104.396026563434	60
6	1615	105.783651220975	61
6	1638	106.847566442343	62
6	1657	108.532541568225	63
6	1684	109.965302452416	64
6	1705	111.598902756002	65
6	1732	114.953962766635	66
6	1752	116.950638176623	67
6	1776	118.322480699537	68
6	1799	120.020246951361	69
6	1839	123.006864615924	70
6	1866	123.995746897797	71
6	1889	125.129327597956	72
6	1909	126.535915909043	73
6	1932	128.340872510843	74
6	1958	130.063405836091	75
6	2004	133.880060423213	76
6	2027	135.139060053182	77
6	2068	137.608039175643	78
6	2096	139.0637441326	79
6	2119	140.189654310608	80
6	2142	141.567276295107	81
6	2158	143.376070592188	82
6	2188	144.479914233537	83
6	2208	145.581463754383	84
6	2254	149.022762649581	85
6	2303	152.150958078826	86
6	2326	153.610691133035	87
6	2349	155.53852480468	88
6	2372	157.360393357961	89
6	2418	160.979540578233	90
6	2441	162.593107235309	91
6	2466	165.906870034468	92
6	2489	167.470536993819	93
6	2508	168.973318257767	94
6	2535	170.657499669779	95
6	2604	174.707104737011	96
6	2673	179.385897043998	97
6	2696	180.409470304502	98
6	2715	181.942204734674	99
6	2735	183.58403309032	100
6	2792	192.472811261827	101
6	2819	193.820220091189	102
6	2842	195.166017473831	103
6	2862	198.045243471858	104
6	2890	199.462711047902	105
6	2913	201.341948121832	106
6	2936	202.749040465679	107
6	2961	205.056048985163	108
6	2984	206.338375762108	109
6	3007	207.472123745578	110
6	3030	209.087643249012	111
6	3048	211.740613362441	112
6	3078	213.677337728837	113
6	3101	216.291999010012	114
6	3124	217.937276834943	115
6	3144	219.599006201316	116
6	3169	220.774907201231	117
6	3215	223.75357172986	118
6	3234	225.63740084937	119
6	3261	226.682347751765	120
6	3304	229.515958232906	121
6	3330	231.12982490785	122
6	3350	233.126231498317	123
6	3372	234.716608683222	124
6	3392	236.474707772952	125
6	3422	237.641242297735	126
6	3445	238.879997475874	127

