version 2
run General-3-20230921-21:39:15-6065
attr configname General
attr datetime 20230921-21:39:15
attr experiment General
attr inifile omnetpp.ini
attr iterationvars ""
attr iterationvarsf ""
attr measurement ""
attr network Network2
attr processid 6065
attr repetition 3
attr replication #3
attr resultdir results
attr runnumber 3
attr seedset 3
param Network2.node[*].transmissionTime "uniform(1s, 2s)"
param Network2.node[*].delayTime "uniform(0.01s, 0.2s)"
param Network2.node[*].processingTime exponential(0.01s)
param Network2.node[*].lossProbability 0.1

vector 0 Network2.node[0] txVector ETV
vector 1 Network2.node[1] txVector ETV
vector 2 Network2.node[2] txVector ETV
vector 3 Network2.node[3] txVector ETV
vector 4 Network2.node[6] txVector ETV
vector 5 Network2.node[4] txVector ETV
vector 6 Network2.node[5] rxVector ETV
0	1	0.114651601831	0
0	20	1.185376482154	1
0	43	2.215252694743	2
0	66	3.801872666762	3
0	89	5.647623539273	4
0	112	7.301254391739	5
0	135	9.008941015763	6
0	158	10.815963690704	7
0	181	11.916068034781	8
0	204	13.797178774908	9
0	227	15.582115474226	10
0	229	16.924535061069	11
0	252	18.53418077582	12
0	275	20.490630287514	13
0	298	22.198061794112	14
0	321	23.337528921035	15
0	344	24.640027212514	16
0	367	25.91932181369	17
0	390	27.63947304741	18
0	413	28.713510842598	19
0	436	30.33021612938	20
0	459	31.330961649609	21
0	482	32.696443321719	22
0	484	34.308037158172	23
0	507	35.35006801209	24
0	530	36.967412638316	25
0	553	38.080856724247	26
0	576	39.869900980569	27
0	578	41.375986244833	28
0	601	42.943888417749	29
0	603	44.540793029895	30
0	626	46.523597800476	31
0	628	47.625732026599	32
0	651	48.763541919483	33
0	674	50.660702765292	34
0	697	52.407373859618	35
0	720	54.321853596788	36
0	743	56.142144797441	37
0	766	57.179281751464	38
0	789	59.065766162543	39
0	809	60.629587912072	40
0	832	62.174991477352	41
0	855	63.516468110333	42
0	857	64.610946199463	43
0	880	66.56018322434	44
0	903	68.183821035621	45
0	926	69.480416455611	46
0	949	71.264666921531	47
0	972	73.225531139949	48
0	995	74.461978708233	49
0	997	75.867334337977	50
0	1020	77.701019856685	51
0	1043	78.718997309056	52
0	1066	80.658455193813	53
0	1089	81.954041170261	54
0	1112	83.612820424677	55
0	1135	85.057821217065	56
0	1158	86.867498114777	57
0	1181	88.269468862635	58
0	1183	90.052509209446	59
0	1206	91.834855140492	60
0	1229	93.098045060251	61
0	1252	94.774291871188	62
0	1275	96.458407886166	63
0	1298	97.969391310194	64
0	1321	99.422375989219	65
0	1344	100.537674632927	66
0	1367	101.883581931775	67
0	1390	103.455447649655	68
0	1413	104.78138921417	69
0	1415	106.204460634689	70
0	1438	107.328813502637	71
0	1458	108.523867256546	72
0	1481	110.30768560183	73
0	1483	111.329955746259	74
0	1506	112.815343164911	75
0	1529	114.526027504893	76
0	1552	116.401100949224	77
0	1554	118.032730390856	78
0	1577	119.642633411873	79
0	1600	121.448033225097	80
0	1623	122.750979173769	81
0	1646	124.227060295948	82
0	1669	125.846332408794	83
0	1692	127.456965985316	84
0	1715	128.550812865681	85
0	1738	129.960367210516	86
0	1761	131.618985673021	87
0	1784	132.933586222659	88
0	1807	134.102397769996	89
0	1830	135.155411543165	90
0	1832	136.327865368294	91
0	1855	137.512912747058	92
0	1878	139.229738784329	93
0	1901	140.327838313141	94
0	1924	142.149660470969	95
0	1947	143.797870871917	96
0	1970	145.352918692472	97
0	1993	146.469155170329	98
0	2016	147.721825796951	99
0	2035	149.102892826151	100
0	2058	150.353415307894	101
0	2077	151.729065211096	102
0	2100	153.000003692999	103
0	2123	154.964657439922	104
0	2146	156.712624169958	105
0	2169	157.771640251695	106
0	2192	158.795679720423	107
0	2215	160.534836636695	108
0	2238	161.835227292801	109
0	2261	163.756516550273	110
0	2284	165.148417994451	111
0	2307	166.771370454297	112
0	2330	168.533746509884	113
0	2353	170.19668995666	114
0	2376	171.981286764915	115
0	2399	173.897967259006	116
0	2422	175.246104031175	117
0	2445	176.671855389678	118
0	2468	178.151538378165	119
0	2491	179.641515418726	120
0	2514	181.34003109981	121
0	2537	182.413866368427	122
0	2560	183.512864019328	123
0	2583	185.06978423435	124
0	2606	186.705421037578	125
0	2629	187.774447909395	126
0	2652	189.333262758401	127
0	2675	190.721980074026	128
0	2698	192.628818799114	129
0	2721	193.910907845782	130
0	2744	195.366521418398	131
0	2767	197.00523822785	132
0	2790	198.631800601563	133
0	2813	200.400735053538	134
0	2836	202.066132724124	135
0	2859	203.458536268284	136
0	2882	205.283234188638	137
0	2905	206.913214256128	138
0	2928	208.00931051078	139
0	2951	209.074040264429	140
0	2974	210.90452445748	141
0	2976	212.334729549314	142
0	2999	214.089979840049	143
0	3022	215.298424748776	144
0	3045	217.261688880229	145
0	3068	218.406371705073	146
0	3091	220.339773444065	147
0	3114	221.51840812138	148
0	3137	222.892148678496	149
0	3160	224.591512961851	150
0	3180	226.310150638528	151
0	3203	227.813285850061	152
0	3226	229.776841776052	153
0	3249	231.444930665034	154
0	3251	233.349528145583	155
0	3253	234.358712471395	156
0	3276	235.53536991596	157
0	3299	237.088880156239	158
0	3322	238.107491946619	159
0	3345	239.232169503186	160
1	3	0.14297423212	0
1	3	0.14297423212	1
1	3	0.14297423212	2
1	3	0.14297423212	3
1	22	1.20147987081	4
1	22	1.20147987081	5
1	22	1.20147987081	6
1	22	1.20147987081	7
1	45	2.22846742908	8
1	45	2.22846742908	9
1	45	2.22846742908	10
1	45	2.22846742908	11
1	68	3.816620722891	12
1	68	3.816620722891	13
1	68	3.816620722891	14
1	68	3.816620722891	15
1	91	5.668490957476	16
1	91	5.668490957476	17
1	91	5.668490957476	18
1	91	5.668490957476	19
1	114	7.324988023937	20
1	114	7.324988023937	21
1	114	7.324988023937	22
1	114	7.324988023937	23
1	137	9.022790217373	24
1	137	9.022790217373	25
1	137	9.022790217373	26
1	137	9.022790217373	27
1	160	10.827348198154	28
1	160	10.827348198154	29
1	160	10.827348198154	30
1	160	10.827348198154	31
1	183	11.942192635066	32
1	183	11.942192635066	33
1	183	11.942192635066	34
1	183	11.942192635066	35
1	206	13.842969473289	36
1	206	13.842969473289	37
1	206	13.842969473289	38
1	206	13.842969473289	39
1	231	16.935820412787	40
1	231	16.935820412787	41
1	231	16.935820412787	42
1	231	16.935820412787	43
1	254	18.549899288857	44
1	254	18.549899288857	45
1	254	18.549899288857	46
1	254	18.549899288857	47
1	277	20.504785531729	48
1	277	20.504785531729	49
1	277	20.504785531729	50
1	277	20.504785531729	51
1	300	22.211827934121	52
1	300	22.211827934121	53
1	300	22.211827934121	54
1	300	22.211827934121	55
1	323	23.34864854055	56
1	323	23.34864854055	57
1	323	23.34864854055	58
1	323	23.34864854055	59
1	346	24.655662710502	60
1	346	24.655662710502	61
1	346	24.655662710502	62
1	346	24.655662710502	63
1	369	25.934599689277	64
1	369	25.934599689277	65
1	369	25.934599689277	66
1	369	25.934599689277	67
1	392	27.655991476996	68
1	392	27.655991476996	69
1	392	27.655991476996	70
1	392	27.655991476996	71
1	415	28.762180026887	72
1	415	28.762180026887	73
1	415	28.762180026887	74
1	415	28.762180026887	75
1	438	30.340523931843	76
1	438	30.340523931843	77
1	438	30.340523931843	78
1	438	30.340523931843	79
1	461	31.355956819265	80
1	461	31.355956819265	81
1	461	31.355956819265	82
1	461	31.355956819265	83
1	486	34.323437418134	84
1	486	34.323437418134	85
1	486	34.323437418134	86
1	486	34.323437418134	87
1	509	35.412134562638	88
1	509	35.412134562638	89
1	509	35.412134562638	90
1	509	35.412134562638	91
1	532	36.984508604278	92
1	532	36.984508604278	93
1	532	36.984508604278	94
1	532	36.984508604278	95
1	555	38.091784215285	96
1	555	38.091784215285	97
1	555	38.091784215285	98
1	555	38.091784215285	99
1	580	41.387207155465	100
1	580	41.387207155465	101
1	580	41.387207155465	102
1	580	41.387207155465	103
1	605	44.560388032496	104
1	605	44.560388032496	105
1	605	44.560388032496	106
1	605	44.560388032496	107
1	630	47.635753304829	108
1	630	47.635753304829	109
1	630	47.635753304829	110
1	630	47.635753304829	111
1	653	48.784991625974	112
1	653	48.784991625974	113
1	653	48.784991625974	114
1	653	48.784991625974	115
1	676	50.67922234887	116
1	676	50.67922234887	117
1	676	50.67922234887	118
1	676	50.67922234887	119
1	699	52.439576878482	120
1	699	52.439576878482	121
1	699	52.439576878482	122
1	699	52.439576878482	123
1	722	54.340360047924	124
1	722	54.340360047924	125
1	722	54.340360047924	126
1	722	54.340360047924	127
1	745	56.216196908054	128
1	745	56.216196908054	129
1	745	56.216196908054	130
1	745	56.216196908054	131
1	768	57.192738490804	132
1	768	57.192738490804	133
1	768	57.192738490804	134
1	768	57.192738490804	135
1	791	59.102447946917	136
1	791	59.102447946917	137
1	791	59.102447946917	138
1	791	59.102447946917	139
1	811	60.671163641777	140
1	811	60.671163641777	141
1	811	60.671163641777	142
1	811	60.671163641777	143
1	834	62.19106900225	144
1	834	62.19106900225	145
1	834	62.19106900225	146
1	834	62.19106900225	147
1	859	64.624082775071	148
1	859	64.624082775071	149
1	859	64.624082775071	150
1	859	64.624082775071	151
1	882	66.571713400872	152
1	882	66.571713400872	153
1	882	66.571713400872	154
1	882	66.571713400872	155
1	905	68.20392038988	156
1	905	68.20392038988	157
1	905	68.20392038988	158
1	905	68.20392038988	159
1	928	69.506718787263	160
1	928	69.506718787263	161
1	928	69.506718787263	162
1	928	69.506718787263	163
1	951	71.291206675092	164
1	951	71.291206675092	165
1	951	71.291206675092	166
1	951	71.291206675092	167
1	974	73.237328089163	168
1	974	73.237328089163	169
1	974	73.237328089163	170
1	974	73.237328089163	171
1	999	75.883051386775	172
1	999	75.883051386775	173
1	999	75.883051386775	174
1	999	75.883051386775	175
1	1022	77.72235932651	176
1	1022	77.72235932651	177
1	1022	77.72235932651	178
1	1022	77.72235932651	179
1	1045	78.767691257658	180
1	1045	78.767691257658	181
1	1045	78.767691257658	182
1	1045	78.767691257658	183
1	1068	80.671666272599	184
1	1068	80.671666272599	185
1	1068	80.671666272599	186
1	1068	80.671666272599	187
1	1091	81.970851431985	188
1	1091	81.970851431985	189
1	1091	81.970851431985	190
1	1091	81.970851431985	191
1	1114	83.625683145701	192
1	1114	83.625683145701	193
1	1114	83.625683145701	194
1	1114	83.625683145701	195
1	1137	85.073312326062	196
1	1137	85.073312326062	197
1	1137	85.073312326062	198
1	1137	85.073312326062	199
1	1160	86.878950594167	200
1	1160	86.878950594167	201
1	1160	86.878950594167	202
1	1160	86.878950594167	203
1	1185	90.068254520457	204
1	1185	90.068254520457	205
1	1185	90.068254520457	206
1	1185	90.068254520457	207
1	1208	91.880869499059	208
1	1208	91.880869499059	209
1	1208	91.880869499059	210
1	1208	91.880869499059	211
1	1231	93.119271025023	212
1	1231	93.119271025023	213
1	1231	93.119271025023	214
1	1231	93.119271025023	215
1	1254	94.788687029359	216
1	1254	94.788687029359	217
1	1254	94.788687029359	218
1	1254	94.788687029359	219
1	1277	96.472961091302	220
1	1277	96.472961091302	221
1	1277	96.472961091302	222
1	1277	96.472961091302	223
1	1300	97.981157550975	224
1	1300	97.981157550975	225
1	1300	97.981157550975	226
1	1300	97.981157550975	227
1	1323	99.442849407563	228
1	1323	99.442849407563	229
1	1323	99.442849407563	230
1	1323	99.442849407563	231
1	1346	100.566820466445	232
1	1346	100.566820466445	233
1	1346	100.566820466445	234
1	1346	100.566820466445	235
1	1369	101.893675073244	236
1	1369	101.893675073244	237
1	1369	101.893675073244	238
1	1369	101.893675073244	239
1	1392	103.466128255275	240
1	1392	103.466128255275	241
1	1392	103.466128255275	242
1	1392	103.466128255275	243
1	1417	106.221179102419	244
1	1417	106.221179102419	245
1	1417	106.221179102419	246
1	1417	106.221179102419	247
1	1440	107.343362654235	248
1	1440	107.343362654235	249
1	1440	107.343362654235	250
1	1440	107.343362654235	251
1	1460	108.542469692108	252
1	1460	108.542469692108	253
1	1460	108.542469692108	254
1	1460	108.542469692108	255
1	1485	111.342861671518	256
1	1485	111.342861671518	257
1	1485	111.342861671518	258
1	1485	111.342861671518	259
1	1508	112.833059086085	260
1	1508	112.833059086085	261
1	1508	112.833059086085	262
1	1508	112.833059086085	263
1	1531	114.536703111025	264
1	1531	114.536703111025	265
1	1531	114.536703111025	266
1	1531	114.536703111025	267
1	1556	118.044529886435	268
1	1556	118.044529886435	269
1	1556	118.044529886435	270
1	1556	118.044529886435	271
1	1579	119.656441710596	272
1	1579	119.656441710596	273
1	1579	119.656441710596	274
1	1579	119.656441710596	275
1	1602	121.46019024439	276
1	1602	121.46019024439	277
1	1602	121.46019024439	278
1	1602	121.46019024439	279
1	1625	122.76798223271	280
1	1625	122.76798223271	281
1	1625	122.76798223271	282
1	1625	122.76798223271	283
1	1648	124.251204800437	284
1	1648	124.251204800437	285
1	1648	124.251204800437	286
1	1648	124.251204800437	287
1	1671	125.864437925068	288
1	1671	125.864437925068	289
1	1671	125.864437925068	290
1	1671	125.864437925068	291
1	1694	127.468110831065	292
1	1694	127.468110831065	293
1	1694	127.468110831065	294
1	1694	127.468110831065	295
1	1717	128.560923522375	296
1	1717	128.560923522375	297
1	1717	128.560923522375	298
1	1717	128.560923522375	299
1	1740	129.974028016757	300
1	1740	129.974028016757	301
1	1740	129.974028016757	302
1	1740	129.974028016757	303
1	1763	131.631970635415	304
1	1763	131.631970635415	305
1	1763	131.631970635415	306
1	1763	131.631970635415	307
1	1786	132.958703960216	308
1	1786	132.958703960216	309
1	1786	132.958703960216	310
1	1786	132.958703960216	311
1	1809	134.131923090085	312
1	1809	134.131923090085	313
1	1809	134.131923090085	314
1	1809	134.131923090085	315
1	1834	136.34888090334	316
1	1834	136.34888090334	317
1	1834	136.34888090334	318
1	1834	136.34888090334	319
1	1857	137.529030378234	320
1	1857	137.529030378234	321
1	1857	137.529030378234	322
1	1857	137.529030378234	323
1	1880	139.2504373385	324
1	1880	139.2504373385	325
1	1880	139.2504373385	326
1	1880	139.2504373385	327
1	1903	140.351701530993	328
1	1903	140.351701530993	329
1	1903	140.351701530993	330
1	1903	140.351701530993	331
1	1926	142.183585537536	332
1	1926	142.183585537536	333
1	1926	142.183585537536	334
1	1926	142.183585537536	335
1	1949	143.835661302149	336
1	1949	143.835661302149	337
1	1949	143.835661302149	338
1	1949	143.835661302149	339
1	1972	145.365992182791	340
1	1972	145.365992182791	341
1	1972	145.365992182791	342
1	1972	145.365992182791	343
1	1995	146.479928364599	344
1	1995	146.479928364599	345
1	1995	146.479928364599	346
1	1995	146.479928364599	347
1	2018	147.737330912476	348
1	2018	147.737330912476	349
1	2018	147.737330912476	350
1	2018	147.737330912476	351
1	2037	149.120052249396	352
1	2037	149.120052249396	353
1	2037	149.120052249396	354
1	2037	149.120052249396	355
1	2060	150.372278623113	356
1	2060	150.372278623113	357
1	2060	150.372278623113	358
1	2060	150.372278623113	359
1	2079	151.765530993816	360
1	2079	151.765530993816	361
1	2079	151.765530993816	362
1	2079	151.765530993816	363
1	2102	153.021161889375	364
1	2102	153.021161889375	365
1	2102	153.021161889375	366
1	2102	153.021161889375	367
1	2125	154.984822192208	368
1	2125	154.984822192208	369
1	2125	154.984822192208	370
1	2125	154.984822192208	371
1	2148	156.725257380844	372
1	2148	156.725257380844	373
1	2148	156.725257380844	374
1	2148	156.725257380844	375
1	2171	157.788825132985	376
1	2171	157.788825132985	377
1	2171	157.788825132985	378
1	2171	157.788825132985	379
1	2194	158.810282587827	380
1	2194	158.810282587827	381
1	2194	158.810282587827	382
1	2194	158.810282587827	383
1	2217	160.573385101112	384
1	2217	160.573385101112	385
1	2217	160.573385101112	386
1	2217	160.573385101112	387
1	2240	161.847232936551	388
1	2240	161.847232936551	389
1	2240	161.847232936551	390
1	2240	161.847232936551	391
1	2263	163.771588921723	392
1	2263	163.771588921723	393
1	2263	163.771588921723	394
1	2263	163.771588921723	395
1	2286	165.166615537647	396
1	2286	165.166615537647	397
1	2286	165.166615537647	398
1	2286	165.166615537647	399
1	2309	166.798481591472	400
1	2309	166.798481591472	401
1	2309	166.798481591472	402
1	2309	166.798481591472	403
1	2332	168.544428231716	404
1	2332	168.544428231716	405
1	2332	168.544428231716	406
1	2332	168.544428231716	407
1	2355	170.221895690967	408
1	2355	170.221895690967	409
1	2355	170.221895690967	410
1	2355	170.221895690967	411
1	2378	171.995954457558	412
1	2378	171.995954457558	413
1	2378	171.995954457558	414
1	2378	171.995954457558	415
1	2401	173.913153910428	416
1	2401	173.913153910428	417
1	2401	173.913153910428	418
1	2401	173.913153910428	419
1	2424	175.258289903722	420
1	2424	175.258289903722	421
1	2424	175.258289903722	422
1	2424	175.258289903722	423
1	2447	176.697272608726	424
1	2447	176.697272608726	425
1	2447	176.697272608726	426
1	2447	176.697272608726	427
1	2470	178.166725630831	428
1	2470	178.166725630831	429
1	2470	178.166725630831	430
1	2470	178.166725630831	431
1	2493	179.652729186692	432
1	2493	179.652729186692	433
1	2493	179.652729186692	434
1	2493	179.652729186692	435
1	2516	181.360659423483	436
1	2516	181.360659423483	437
1	2516	181.360659423483	438
1	2516	181.360659423483	439
1	2539	182.429315173026	440
1	2539	182.429315173026	441
1	2539	182.429315173026	442
1	2539	182.429315173026	443
1	2562	183.530766663759	444
1	2562	183.530766663759	445
1	2562	183.530766663759	446
1	2562	183.530766663759	447
1	2585	185.082142354895	448
1	2585	185.082142354895	449
1	2585	185.082142354895	450
1	2585	185.082142354895	451
1	2608	186.715815573068	452
1	2608	186.715815573068	453
1	2608	186.715815573068	454
1	2608	186.715815573068	455
1	2631	187.785322943835	456
1	2631	187.785322943835	457
1	2631	187.785322943835	458
1	2631	187.785322943835	459
1	2654	189.348182713427	460
1	2654	189.348182713427	461
1	2654	189.348182713427	462
1	2654	189.348182713427	463
1	2677	190.739261349302	464
1	2677	190.739261349302	465
1	2677	190.739261349302	466
1	2677	190.739261349302	467
1	2700	192.640976114788	468
1	2700	192.640976114788	469
1	2700	192.640976114788	470
1	2700	192.640976114788	471
1	2723	193.928982605049	472
1	2723	193.928982605049	473
1	2723	193.928982605049	474
1	2723	193.928982605049	475
1	2746	195.380729229028	476
1	2746	195.380729229028	477
1	2746	195.380729229028	478
1	2746	195.380729229028	479
1	2769	197.019395691924	480
1	2769	197.019395691924	481
1	2769	197.019395691924	482
1	2769	197.019395691924	483
1	2792	198.64322442548	484
1	2792	198.64322442548	485
1	2792	198.64322442548	486
1	2792	198.64322442548	487
1	2815	200.413244417316	488
1	2815	200.413244417316	489
1	2815	200.413244417316	490
1	2815	200.413244417316	491
1	2838	202.077996023434	492
1	2838	202.077996023434	493
1	2838	202.077996023434	494
1	2838	202.077996023434	495
1	2861	203.472819569428	496
1	2861	203.472819569428	497
1	2861	203.472819569428	498
1	2861	203.472819569428	499
1	2884	205.310080626768	500
1	2884	205.310080626768	501
1	2884	205.310080626768	502
1	2884	205.310080626768	503
1	2907	206.92558387955	504
1	2907	206.92558387955	505
1	2907	206.92558387955	506
1	2907	206.92558387955	507
1	2930	208.031549829914	508
1	2930	208.031549829914	509
1	2930	208.031549829914	510
1	2930	208.031549829914	511
1	2953	209.085629466597	512
1	2953	209.085629466597	513
1	2953	209.085629466597	514
1	2953	209.085629466597	515
1	2978	212.362167101994	516
1	2978	212.362167101994	517
1	2978	212.362167101994	518
1	2978	212.362167101994	519
1	3001	214.101484301895	520
1	3001	214.101484301895	521
1	3001	214.101484301895	522
1	3001	214.101484301895	523
1	3024	215.328279373401	524
1	3024	215.328279373401	525
1	3024	215.328279373401	526
1	3024	215.328279373401	527
1	3047	217.277957908882	528
1	3047	217.277957908882	529
1	3047	217.277957908882	530
1	3047	217.277957908882	531
1	3070	218.42094836488	532
1	3070	218.42094836488	533
1	3070	218.42094836488	534
1	3070	218.42094836488	535
1	3093	220.356938208176	536
1	3093	220.356938208176	537
1	3093	220.356938208176	538
1	3093	220.356938208176	539
1	3116	221.528834390243	540
1	3116	221.528834390243	541
1	3116	221.528834390243	542
1	3116	221.528834390243	543
1	3139	222.905615956467	544
1	3139	222.905615956467	545
1	3139	222.905615956467	546
1	3139	222.905615956467	547
1	3162	224.604205211785	548
1	3162	224.604205211785	549
1	3162	224.604205211785	550
1	3162	224.604205211785	551
1	3182	226.321553256771	552
1	3182	226.321553256771	553
1	3182	226.321553256771	554
1	3182	226.321553256771	555
1	3205	227.826310748679	556
1	3205	227.826310748679	557
1	3205	227.826310748679	558
1	3205	227.826310748679	559
1	3228	229.813020693659	560
1	3228	229.813020693659	561
1	3228	229.813020693659	562
1	3228	229.813020693659	563
1	3255	234.371511868556	564
1	3255	234.371511868556	565
1	3255	234.371511868556	566
1	3255	234.371511868556	567
1	3278	235.546855680957	568
1	3278	235.546855680957	569
1	3278	235.546855680957	570
1	3278	235.546855680957	571
1	3301	237.101472445749	572
1	3301	237.101472445749	573
1	3301	237.101472445749	574
1	3301	237.101472445749	575
1	3324	238.136082964299	576
1	3324	238.136082964299	577
1	3324	238.136082964299	578
1	3324	238.136082964299	579
1	3347	239.269641083133	580
1	3347	239.269641083133	581
1	3347	239.269641083133	582
1	3347	239.269641083133	583
2	8	0.160124635094	0
2	8	0.160124635094	1
2	8	0.160124635094	2
2	8	0.160124635094	3
2	27	1.213907939601	4
2	27	1.213907939601	5
2	27	1.213907939601	6
2	27	1.213907939601	7
2	51	2.246334296646	8
2	51	2.246334296646	9
2	51	2.246334296646	10
2	51	2.246334296646	11
2	77	3.845015464585	12
2	77	3.845015464585	13
2	77	3.845015464585	14
2	77	3.845015464585	15
2	97	5.681824558368	16
2	97	5.681824558368	17
2	97	5.681824558368	18
2	97	5.681824558368	19
2	123	7.351509507127	20
2	123	7.351509507127	21
2	123	7.351509507127	22
2	123	7.351509507127	23
2	149	9.049499184859	24
2	149	9.049499184859	25
2	149	9.049499184859	26
2	149	9.049499184859	27
2	166	10.838583630735	28
2	166	10.838583630735	29
2	166	10.838583630735	30
2	166	10.838583630735	31
2	189	11.965847844305	32
2	189	11.965847844305	33
2	189	11.965847844305	34
2	189	11.965847844305	35
2	211	13.855055112417	36
2	211	13.855055112417	37
2	211	13.855055112417	38
2	211	13.855055112417	39
2	239	16.961288740927	40
2	239	16.961288740927	41
2	239	16.961288740927	42
2	239	16.961288740927	43
2	266	18.572958033797	44
2	266	18.572958033797	45
2	266	18.572958033797	46
2	266	18.572958033797	47
2	287	20.534745338774	48
2	287	20.534745338774	49
2	287	20.534745338774	50
2	287	20.534745338774	51
2	305	22.225538014931	52
2	305	22.225538014931	53
2	305	22.225538014931	54
2	305	22.225538014931	55
2	329	23.365235940863	56
2	329	23.365235940863	57
2	329	23.365235940863	58
2	329	23.365235940863	59
2	351	24.675965005942	60
2	351	24.675965005942	61
2	351	24.675965005942	62
2	351	24.675965005942	63
2	374	25.945065337425	64
2	374	25.945065337425	65
2	374	25.945065337425	66
2	374	25.945065337425	67
2	408	27.716078778736	68
2	408	27.716078778736	69
2	408	27.716078778736	70
2	408	27.716078778736	71
2	421	28.776845108394	72
2	421	28.776845108394	73
2	421	28.776845108394	74
2	421	28.776845108394	75
2	445	30.353764182916	76
2	445	30.353764182916	77
2	445	30.353764182916	78
2	445	30.353764182916	79
2	466	31.368540808309	80
2	466	31.368540808309	81
2	466	31.368540808309	82
2	466	31.368540808309	83
2	498	34.40000397242	84
2	498	34.40000397242	85
2	498	34.40000397242	86
2	498	34.40000397242	87
2	515	35.42402824488	88
2	515	35.42402824488	89
2	515	35.42402824488	90
2	515	35.42402824488	91
2	537	36.994782643844	92
2	537	36.994782643844	93
2	537	36.994782643844	94
2	537	36.994782643844	95
2	561	38.107189539076	96
2	561	38.107189539076	97
2	561	38.107189539076	98
2	561	38.107189539076	99
2	586	41.406183659965	100
2	586	41.406183659965	101
2	586	41.406183659965	102
2	586	41.406183659965	103
2	612	44.580904618364	104
2	612	44.580904618364	105
2	612	44.580904618364	106
2	612	44.580904618364	107
2	637	47.65100575982	108
2	637	47.65100575982	109
2	637	47.65100575982	110
2	637	47.65100575982	111
2	666	48.822732725921	112
2	666	48.822732725921	113
2	666	48.822732725921	114
2	666	48.822732725921	115
2	681	50.693357004674	116
2	681	50.693357004674	117
2	681	50.693357004674	118
2	681	50.693357004674	119
2	704	52.450862886388	120
2	704	52.450862886388	121
2	704	52.450862886388	122
2	704	52.450862886388	123
2	727	54.352853301832	124
2	727	54.352853301832	125
2	727	54.352853301832	126
2	727	54.352853301832	127
2	751	56.235861710851	128
2	751	56.235861710851	129
2	751	56.235861710851	130
2	751	56.235861710851	131
2	773	57.207476189511	132
2	773	57.207476189511	133
2	773	57.207476189511	134
2	773	57.207476189511	135
2	797	59.120097397582	136
2	797	59.120097397582	137
2	797	59.120097397582	138
2	797	59.120097397582	139
2	816	60.685670169239	140
2	816	60.685670169239	141
2	816	60.685670169239	142
2	816	60.685670169239	143
2	846	62.218551783758	144
2	846	62.218551783758	145
2	846	62.218551783758	146
2	846	62.218551783758	147
2	864	64.643376803897	148
2	864	64.643376803897	149
2	864	64.643376803897	150
2	864	64.643376803897	151
2	887	66.583584058081	152
2	887	66.583584058081	153
2	887	66.583584058081	154
2	887	66.583584058081	155
2	914	68.229277425614	156
2	914	68.229277425614	157
2	914	68.229277425614	158
2	914	68.229277425614	159
2	938	69.533024381647	160
2	938	69.533024381647	161
2	938	69.533024381647	162
2	938	69.533024381647	163
2	957	71.305477161591	164
2	957	71.305477161591	165
2	957	71.305477161591	166
2	957	71.305477161591	167
2	984	73.266191060123	168
2	984	73.266191060123	169
2	984	73.266191060123	170
2	984	73.266191060123	171
2	1004	75.900651129533	172
2	1004	75.900651129533	173
2	1004	75.900651129533	174
2	1004	75.900651129533	175
2	1027	77.736152573371	176
2	1027	77.736152573371	177
2	1027	77.736152573371	178
2	1027	77.736152573371	179
2	1051	78.792071447694	180
2	1051	78.792071447694	181
2	1051	78.792071447694	182
2	1051	78.792071447694	183
2	1074	80.690952889326	184
2	1074	80.690952889326	185
2	1074	80.690952889326	186
2	1074	80.690952889326	187
2	1096	81.982396147483	188
2	1096	81.982396147483	189
2	1096	81.982396147483	190
2	1096	81.982396147483	191
2	1122	83.646788732084	192
2	1122	83.646788732084	193
2	1122	83.646788732084	194
2	1122	83.646788732084	195
2	1149	85.10195314663	196
2	1149	85.10195314663	197
2	1149	85.10195314663	198
2	1149	85.10195314663	199
2	1168	86.913357329826	200
2	1168	86.913357329826	201
2	1168	86.913357329826	202
2	1168	86.913357329826	203
2	1195	90.091692140691	204
2	1195	90.091692140691	205
2	1195	90.091692140691	206
2	1195	90.091692140691	207
2	1215	91.903384875975	208
2	1215	91.903384875975	209
2	1215	91.903384875975	210
2	1215	91.903384875975	211
2	1243	93.160120342249	212
2	1243	93.160120342249	213
2	1243	93.160120342249	214
2	1243	93.160120342249	215
2	1267	94.822807151938	216
2	1267	94.822807151938	217
2	1267	94.822807151938	218
2	1267	94.822807151938	219
2	1289	96.496808408081	220
2	1289	96.496808408081	221
2	1289	96.496808408081	222
2	1289	96.496808408081	223
2	1305	98.000298286055	224
2	1305	98.000298286055	225
2	1305	98.000298286055	226
2	1305	98.000298286055	227
2	1328	99.452894693679	228
2	1328	99.452894693679	229
2	1328	99.452894693679	230
2	1328	99.452894693679	231
2	1351	100.579801368984	232
2	1351	100.579801368984	233
2	1351	100.579801368984	234
2	1351	100.579801368984	235
2	1375	101.916312135013	236
2	1375	101.916312135013	237
2	1375	101.916312135013	238
2	1375	101.916312135013	239
2	1402	103.494731940415	240
2	1402	103.494731940415	241
2	1402	103.494731940415	242
2	1402	103.494731940415	243
2	1424	106.238300039136	244
2	1424	106.238300039136	245
2	1424	106.238300039136	246
2	1424	106.238300039136	247
2	1445	107.354687453873	248
2	1445	107.354687453873	249
2	1445	107.354687453873	250
2	1445	107.354687453873	251
2	1465	108.554249084148	252
2	1465	108.554249084148	253
2	1465	108.554249084148	254
2	1465	108.554249084148	255
2	1495	111.373722104737	256
2	1495	111.373722104737	257
2	1495	111.373722104737	258
2	1495	111.373722104737	259
2	1513	112.87559646287	260
2	1513	112.87559646287	261
2	1513	112.87559646287	262
2	1513	112.87559646287	263
2	1536	114.55490525851	264
2	1536	114.55490525851	265
2	1536	114.55490525851	266
2	1536	114.55490525851	267
2	1561	118.068234091084	268
2	1561	118.068234091084	269
2	1561	118.068234091084	270
2	1561	118.068234091084	271
2	1585	119.667529883354	272
2	1585	119.667529883354	273
2	1585	119.667529883354	274
2	1585	119.667529883354	275
2	1607	121.476829453183	276
2	1607	121.476829453183	277
2	1607	121.476829453183	278
2	1607	121.476829453183	279
2	1633	122.812920746821	280
2	1633	122.812920746821	281
2	1633	122.812920746821	282
2	1633	122.812920746821	283
2	1653	124.264212489192	284
2	1653	124.264212489192	285
2	1653	124.264212489192	286
2	1653	124.264212489192	287
2	1677	125.881778141594	288
2	1677	125.881778141594	289
2	1677	125.881778141594	290
2	1677	125.881778141594	291
2	1703	127.496428943712	292
2	1703	127.496428943712	293
2	1703	127.496428943712	294
2	1703	127.496428943712	295
2	1722	128.571021751822	296
2	1722	128.571021751822	297
2	1722	128.571021751822	298
2	1722	128.571021751822	299
2	1746	129.996219438041	300
2	1746	129.996219438041	301
2	1746	129.996219438041	302
2	1746	129.996219438041	303
2	1768	131.644429786455	304
2	1768	131.644429786455	305
2	1768	131.644429786455	306
2	1768	131.644429786455	307
2	1791	132.971683407348	308
2	1791	132.971683407348	309
2	1791	132.971683407348	310
2	1791	132.971683407348	311
2	1816	134.158067322604	312
2	1816	134.158067322604	313
2	1816	134.158067322604	314
2	1816	134.158067322604	315
2	1846	136.38080857216	316
2	1846	136.38080857216	317
2	1846	136.38080857216	318
2	1846	136.38080857216	319
2	1862	137.542747408391	320
2	1862	137.542747408391	321
2	1862	137.542747408391	322
2	1862	137.542747408391	323
2	1886	139.26364014082	324
2	1886	139.26364014082	325
2	1886	139.26364014082	326
2	1886	139.26364014082	327
2	1908	140.364381783611	328
2	1908	140.364381783611	329
2	1908	140.364381783611	330
2	1908	140.364381783611	331
2	1932	142.196718748289	332
2	1932	142.196718748289	333
2	1932	142.196718748289	334
2	1932	142.196718748289	335
2	1955	143.852196991819	336
2	1955	143.852196991819	337
2	1955	143.852196991819	338
2	1955	143.852196991819	339
2	1977	145.378094193703	340
2	1977	145.378094193703	341
2	1977	145.378094193703	342
2	1977	145.378094193703	343
2	2000	146.49126017931	344
2	2000	146.49126017931	345
2	2000	146.49126017931	346
2	2000	146.49126017931	347
2	2024	147.753113100528	348
2	2024	147.753113100528	349
2	2024	147.753113100528	350
2	2024	147.753113100528	351
2	2043	149.140431368775	352
2	2043	149.140431368775	353
2	2043	149.140431368775	354
2	2043	149.140431368775	355
2	2069	150.400731895281	356
2	2069	150.400731895281	357
2	2069	150.400731895281	358
2	2069	150.400731895281	359
2	2084	151.779905546467	360
2	2084	151.779905546467	361
2	2084	151.779905546467	362
2	2084	151.779905546467	363
2	2107	153.041961400186	364
2	2107	153.041961400186	365
2	2107	153.041961400186	366
2	2107	153.041961400186	367
2	2131	155.005466546992	368
2	2131	155.005466546992	369
2	2131	155.005466546992	370
2	2131	155.005466546992	371
2	2154	156.745487833195	372
2	2154	156.745487833195	373
2	2154	156.745487833195	374
2	2154	156.745487833195	375
2	2178	157.806868520629	376
2	2178	157.806868520629	377
2	2178	157.806868520629	378
2	2178	157.806868520629	379
2	2199	158.826946865558	380
2	2199	158.826946865558	381
2	2199	158.826946865558	382
2	2199	158.826946865558	383
2	2223	160.594005482342	384
2	2223	160.594005482342	385
2	2223	160.594005482342	386
2	2223	160.594005482342	387
2	2246	161.889856838602	388
2	2246	161.889856838602	389
2	2246	161.889856838602	390
2	2246	161.889856838602	391
2	2269	163.794232845313	392
2	2269	163.794232845313	393
2	2269	163.794232845313	394
2	2269	163.794232845313	395
2	2291	165.177172753025	396
2	2291	165.177172753025	397
2	2291	165.177172753025	398
2	2291	165.177172753025	399
2	2314	166.809303443524	400
2	2314	166.809303443524	401
2	2314	166.809303443524	402
2	2314	166.809303443524	403
2	2338	168.5625825464	404
2	2338	168.5625825464	405
2	2338	168.5625825464	406
2	2338	168.5625825464	407
2	2363	170.242156604922	408
2	2363	170.242156604922	409
2	2363	170.242156604922	410
2	2363	170.242156604922	411
2	2383	172.006062096781	412
2	2383	172.006062096781	413
2	2383	172.006062096781	414
2	2383	172.006062096781	415
2	2407	173.92740285632	416
2	2407	173.92740285632	417
2	2407	173.92740285632	418
2	2407	173.92740285632	419
2	2429	175.272104048232	420
2	2429	175.272104048232	421
2	2429	175.272104048232	422
2	2429	175.272104048232	423
2	2452	176.708696914399	424
2	2452	176.708696914399	425
2	2452	176.708696914399	426
2	2452	176.708696914399	427
2	2475	178.177043936054	428
2	2475	178.177043936054	429
2	2475	178.177043936054	430
2	2475	178.177043936054	431
2	2499	179.6684802345	432
2	2499	179.6684802345	433
2	2499	179.6684802345	434
2	2499	179.6684802345	435
2	2521	181.371201838043	436
2	2521	181.371201838043	437
2	2521	181.371201838043	438
2	2521	181.371201838043	439
2	2547	182.457491195072	440
2	2547	182.457491195072	441
2	2547	182.457491195072	442
2	2547	182.457491195072	443
2	2567	183.551374192329	444
2	2567	183.551374192329	445
2	2567	183.551374192329	446
2	2567	183.551374192329	447
2	2590	185.095433997393	448
2	2590	185.095433997393	449
2	2590	185.095433997393	450
2	2590	185.095433997393	451
2	2613	186.728842545409	452
2	2613	186.728842545409	453
2	2613	186.728842545409	454
2	2613	186.728842545409	455
2	2637	187.801496536039	456
2	2637	187.801496536039	457
2	2637	187.801496536039	458
2	2637	187.801496536039	459
2	2666	189.400476799447	460
2	2666	189.400476799447	461
2	2666	189.400476799447	462
2	2666	189.400476799447	463
2	2684	190.751364308648	464
2	2684	190.751364308648	465
2	2684	190.751364308648	466
2	2684	190.751364308648	467
2	2707	192.664632718712	468
2	2707	192.664632718712	469
2	2707	192.664632718712	470
2	2707	192.664632718712	471
2	2729	193.947397929368	472
2	2729	193.947397929368	473
2	2729	193.947397929368	474
2	2729	193.947397929368	475
2	2752	195.399685912197	476
2	2752	195.399685912197	477
2	2752	195.399685912197	478
2	2752	195.399685912197	479
2	2781	197.045087544241	480
2	2781	197.045087544241	481
2	2781	197.045087544241	482
2	2781	197.045087544241	483
2	2801	198.665729277146	484
2	2801	198.665729277146	485
2	2801	198.665729277146	486
2	2801	198.665729277146	487
2	2821	200.429247349427	488
2	2821	200.429247349427	489
2	2821	200.429247349427	490
2	2821	200.429247349427	491
2	2844	202.090114263009	492
2	2844	202.090114263009	493
2	2844	202.090114263009	494
2	2844	202.090114263009	495
2	2866	203.486365280156	496
2	2866	203.486365280156	497
2	2866	203.486365280156	498
2	2866	203.486365280156	499
2	2890	205.329736116648	500
2	2890	205.329736116648	501
2	2890	205.329736116648	502
2	2890	205.329736116648	503
2	2918	206.956988484887	504
2	2918	206.956988484887	505
2	2918	206.956988484887	506
2	2918	206.956988484887	507
2	2936	208.051180524539	508
2	2936	208.051180524539	509
2	2936	208.051180524539	510
2	2936	208.051180524539	511
2	2959	209.098339188018	512
2	2959	209.098339188018	513
2	2959	209.098339188018	514
2	2959	209.098339188018	515
2	2988	212.395948233871	516
2	2988	212.395948233871	517
2	2988	212.395948233871	518
2	2988	212.395948233871	519
2	3006	214.112281288291	520
2	3006	214.112281288291	521
2	3006	214.112281288291	522
2	3006	214.112281288291	523
2	3029	215.340326286055	524
2	3029	215.340326286055	525
2	3029	215.340326286055	526
2	3029	215.340326286055	527
2	3052	217.292765327986	528
2	3052	217.292765327986	529
2	3052	217.292765327986	530
2	3052	217.292765327986	531
2	3075	218.442449213776	532
2	3075	218.442449213776	533
2	3075	218.442449213776	534
2	3075	218.442449213776	535
2	3104	220.391508778729	536
2	3104	220.391508778729	537
2	3104	220.391508778729	538
2	3104	220.391508778729	539
2	3122	221.543118170459	540
2	3122	221.543118170459	541
2	3122	221.543118170459	542
2	3122	221.543118170459	543
2	3146	222.923842802267	544
2	3146	222.923842802267	545
2	3146	222.923842802267	546
2	3146	222.923842802267	547
2	3167	224.618970687931	548
2	3167	224.618970687931	549
2	3167	224.618970687931	550
2	3167	224.618970687931	551
2	3187	226.333608740376	552
2	3187	226.333608740376	553
2	3187	226.333608740376	554
2	3187	226.333608740376	555
2	3214	227.849533379637	556
2	3214	227.849533379637	557
2	3214	227.849533379637	558
2	3214	227.849533379637	559
2	3234	229.826118543958	560
2	3234	229.826118543958	561
2	3234	229.826118543958	562
2	3234	229.826118543958	563
2	3262	234.392057204905	564
2	3262	234.392057204905	565
2	3262	234.392057204905	566
2	3262	234.392057204905	567
2	3283	235.557257549236	568
2	3283	235.557257549236	569
2	3283	235.557257549236	570
2	3283	235.557257549236	571
2	3306	237.113565481256	572
2	3306	237.113565481256	573
2	3306	237.113565481256	574
2	3306	237.113565481256	575
2	3331	238.154546126388	576
2	3331	238.154546126388	577
2	3331	238.154546126388	578
2	3331	238.154546126388	579
2	3356	239.303059473061	580
2	3356	239.303059473061	581
2	3356	239.303059473061	582
2	3356	239.303059473061	583
3	13	0.175318540583	0
3	13	0.175318540583	1
3	13	0.175318540583	2
3	28	1.21584795921	3
3	28	1.21584795921	4
3	28	1.21584795921	5
3	54	2.253623024011	6
3	54	2.253623024011	7
3	54	2.253623024011	8
3	74	3.837216876347	9
3	74	3.837216876347	10
3	74	3.837216876347	11
3	96	5.681747947375	12
3	96	5.681747947375	13
3	96	5.681747947375	14
3	119	7.338790158264	15
3	119	7.338790158264	16
3	119	7.338790158264	17
3	143	9.039376627672	18
3	143	9.039376627672	19
3	143	9.039376627672	20
3	165	10.838247453056	21
3	165	10.838247453056	22
3	165	10.838247453056	23
3	188	11.962990321645	24
3	188	11.962990321645	25
3	188	11.962990321645	26
3	212	13.85930658947	27
3	212	13.85930658947	28
3	212	13.85930658947	29
3	248	17.051974039341	30
3	248	17.051974039341	31
3	248	17.051974039341	32
3	259	18.560493938859	33
3	259	18.560493938859	34
3	259	18.560493938859	35
3	282	20.51822273034	36
3	282	20.51822273034	37
3	282	20.51822273034	38
3	313	22.240238719473	39
3	313	22.240238719473	40
3	313	22.240238719473	41
3	328	23.362031977123	42
3	328	23.362031977123	43
3	328	23.362031977123	44
3	357	24.688589520106	45
3	357	24.688589520106	46
3	357	24.688589520106	47
3	380	25.96103282596	48
3	380	25.96103282596	49
3	380	25.96103282596	50
3	400	27.687553962362	51
3	400	27.687553962362	52
3	400	27.687553962362	53
3	422	28.781822674496	54
3	422	28.781822674496	55
3	422	28.781822674496	56
3	443	30.351312072023	57
3	443	30.351312072023	58
3	443	30.351312072023	59
3	474	31.382819059291	60
3	474	31.382819059291	61
3	474	31.382819059291	62
3	491	34.336268151457	63
3	491	34.336268151457	64
3	491	34.336268151457	65
3	522	35.439762314164	66
3	522	35.439762314164	67
3	522	35.439762314164	68
3	538	36.995052902363	69
3	538	36.995052902363	70
3	538	36.995052902363	71
3	560	38.105215950162	72
3	560	38.105215950162	73
3	560	38.105215950162	74
3	593	41.419943595796	75
3	593	41.419943595796	76
3	593	41.419943595796	77
3	610	44.578222678907	78
3	610	44.578222678907	79
3	610	44.578222678907	80
3	635	47.647551745689	81
3	635	47.647551745689	82
3	635	47.647551745689	83
3	661	48.809673384661	84
3	661	48.809673384661	85
3	661	48.809673384661	86
3	682	50.696706916128	87
3	682	50.696706916128	88
3	682	50.696706916128	89
3	705	52.451718059688	90
3	705	52.451718059688	91
3	705	52.451718059688	92
3	733	54.369405724046	93
3	733	54.369405724046	94
3	733	54.369405724046	95
3	752	56.238167037109	96
3	752	56.238167037109	97
3	752	56.238167037109	98
3	774	57.212364255716	99
3	774	57.212364255716	100
3	774	57.212364255716	101
3	796	59.114800754438	102
3	796	59.114800754438	103
3	796	59.114800754438	104
3	817	60.694559002579	105
3	817	60.694559002579	106
3	817	60.694559002579	107
3	840	62.20451198089	108
3	840	62.20451198089	109
3	840	62.20451198089	110
3	865	64.653284015503	111
3	865	64.653284015503	112
3	865	64.653284015503	113
3	889	66.592537812348	114
3	889	66.592537812348	115
3	889	66.592537812348	116
3	911	68.220827994618	117
3	911	68.220827994618	118
3	911	68.220827994618	119
3	933	69.522434927173	120
3	933	69.522434927173	121
3	933	69.522434927173	122
3	958	71.310237526807	123
3	958	71.310237526807	124
3	958	71.310237526807	125
3	979	73.252872464072	126
3	979	73.252872464072	127
3	979	73.252872464072	128
3	1012	75.919089578028	129
3	1012	75.919089578028	130
3	1012	75.919089578028	131
3	1034	77.752104088471	132
3	1034	77.752104088471	133
3	1034	77.752104088471	134
3	1050	78.7884694751	135
3	1050	78.7884694751	136
3	1050	78.7884694751	137
3	1081	80.702225912967	138
3	1081	80.702225912967	139
3	1081	80.702225912967	140
3	1108	82.012950237642	141
3	1108	82.012950237642	142
3	1108	82.012950237642	143
3	1123	83.654912475401	144
3	1123	83.654912475401	145
3	1123	83.654912475401	146
3	1143	85.089674865672	147
3	1143	85.089674865672	148
3	1143	85.089674865672	149
3	1174	86.928567814896	150
3	1174	86.928567814896	151
3	1174	86.928567814896	152
3	1190	90.078432623263	153
3	1190	90.078432623263	154
3	1190	90.078432623263	155
3	1213	91.893729587697	156
3	1213	91.893729587697	157
3	1213	91.893729587697	158
3	1236	93.142642651256	159
3	1236	93.142642651256	160
3	1236	93.142642651256	161
3	1260	94.810105976521	162
3	1260	94.810105976521	163
3	1260	94.810105976521	164
3	1283	96.485685483402	165
3	1283	96.485685483402	166
3	1283	96.485685483402	167
3	1317	98.024377196574	168
3	1317	98.024377196574	169
3	1317	98.024377196574	170
3	1334	99.463326667699	171
3	1334	99.463326667699	172
3	1334	99.463326667699	173
3	1358	100.599975151501	174
3	1358	100.599975151501	175
3	1358	100.599975151501	176
3	1382	101.927694060494	177
3	1382	101.927694060494	178
3	1382	101.927694060494	179
3	1397	103.484330107402	180
3	1397	103.484330107402	181
3	1397	103.484330107402	182
3	1423	106.235544089129	183
3	1423	106.235544089129	184
3	1423	106.235544089129	185
3	1446	107.355962212399	186
3	1446	107.355962212399	187
3	1446	107.355962212399	188
3	1473	108.575130142847	189
3	1473	108.575130142847	190
3	1473	108.575130142847	191
3	1490	111.35336143463	192
3	1490	111.35336143463	193
3	1490	111.35336143463	194
3	1518	112.887106423369	195
3	1518	112.887106423369	196
3	1518	112.887106423369	197
3	1537	114.556719873935	198
3	1537	114.556719873935	199
3	1537	114.556719873935	200
3	1562	118.072047119312	201
3	1562	118.072047119312	202
3	1562	118.072047119312	203
3	1584	119.666626977368	204
3	1584	119.666626977368	205
3	1584	119.666626977368	206
3	1613	121.495373020011	207
3	1613	121.495373020011	208
3	1613	121.495373020011	209
3	1642	122.843320742673	210
3	1642	122.843320742673	211
3	1642	122.843320742673	212
3	1660	124.282921266013	213
3	1660	124.282921266013	214
3	1660	124.282921266013	215
3	1678	125.882408814672	216
3	1678	125.882408814672	217
3	1678	125.882408814672	218
3	1700	127.48726705401	219
3	1700	127.48726705401	220
3	1700	127.48726705401	221
3	1723	128.571484642842	222
3	1723	128.571484642842	223
3	1723	128.571484642842	224
3	1745	129.988930357877	225
3	1745	129.988930357877	226
3	1745	129.988930357877	227
3	1769	131.647829814934	228
3	1769	131.647829814934	229
3	1769	131.647829814934	230
3	1793	132.977185990818	231
3	1793	132.977185990818	232
3	1793	132.977185990818	233
3	1814	134.150765625802	234
3	1814	134.150765625802	235
3	1814	134.150765625802	236
3	1840	136.367243053539	237
3	1840	136.367243053539	238
3	1840	136.367243053539	239
3	1863	137.546346786927	240
3	1863	137.546346786927	241
3	1863	137.546346786927	242
3	1885	139.262426976544	243
3	1885	139.262426976544	244
3	1885	139.262426976544	245
3	1913	140.375289707304	246
3	1913	140.375289707304	247
3	1913	140.375289707304	248
3	1931	142.195074357541	249
3	1931	142.195074357541	250
3	1931	142.195074357541	251
3	1966	143.892965164853	252
3	1966	143.892965164853	253
3	1966	143.892965164853	254
3	1978	145.379662689613	255
3	1978	145.379662689613	256
3	1978	145.379662689613	257
3	2001	146.493229885841	258
3	2001	146.493229885841	259
3	2001	146.493229885841	260
3	2025	147.754280461405	261
3	2025	147.754280461405	262
3	2025	147.754280461405	263
3	2044	149.143767005484	264
3	2044	149.143767005484	265
3	2044	149.143767005484	266
3	2066	150.393225885926	267
3	2066	150.393225885926	268
3	2066	150.393225885926	269
3	2089	151.790951654878	270
3	2089	151.790951654878	271
3	2089	151.790951654878	272
3	2109	153.047783371763	273
3	2109	153.047783371763	274
3	2109	153.047783371763	275
3	2138	155.016632152535	276
3	2138	155.016632152535	277
3	2138	155.016632152535	278
3	2153	156.744894547064	279
3	2153	156.744894547064	280
3	2153	156.744894547064	281
3	2177	157.802138705232	282
3	2177	157.802138705232	283
3	2177	157.802138705232	284
3	2211	158.853502052087	285
3	2211	158.853502052087	286
3	2211	158.853502052087	287
3	2231	160.614287954227	288
3	2231	160.614287954227	289
3	2231	160.614287954227	290
3	2245	161.883605587146	291
3	2245	161.883605587146	292
3	2245	161.883605587146	293
3	2268	163.791128895715	294
3	2268	163.791128895715	295
3	2268	163.791128895715	296
3	2292	165.177561557317	297
3	2292	165.177561557317	298
3	2292	165.177561557317	299
3	2326	166.840557010433	300
3	2326	166.840557010433	301
3	2326	166.840557010433	302
3	2349	168.588298404501	303
3	2349	168.588298404501	304
3	2349	168.588298404501	305
3	2364	170.243535288899	306
3	2364	170.243535288899	307
3	2364	170.243535288899	308
3	2392	172.022992010562	309
3	2392	172.022992010562	310
3	2392	172.022992010562	311
3	2406	173.9242369491	312
3	2406	173.9242369491	313
3	2406	173.9242369491	314
3	2430	175.272431489807	315
3	2430	175.272431489807	316
3	2430	175.272431489807	317
3	2453	176.710754582227	318
3	2453	176.710754582227	319
3	2453	176.710754582227	320
3	2477	178.184998442795	321
3	2477	178.184998442795	322
3	2477	178.184998442795	323
3	2498	179.663147107161	324
3	2498	179.663147107161	325
3	2498	179.663147107161	326
3	2533	181.402325101598	327
3	2533	181.402325101598	328
3	2533	181.402325101598	329
3	2552	182.477668737245	330
3	2552	182.477668737245	331
3	2552	182.477668737245	332
3	2572	183.563431063797	333
3	2572	183.563431063797	334
3	2572	183.563431063797	335
3	2599	185.11239639196	336
3	2599	185.11239639196	337
3	2599	185.11239639196	338
3	2619	186.739937202956	339
3	2619	186.739937202956	340
3	2619	186.739937202956	341
3	2638	187.804752550748	342
3	2638	187.804752550748	343
3	2638	187.804752550748	344
3	2660	189.359670894886	345
3	2660	189.359670894886	346
3	2660	189.359670894886	347
3	2683	190.751211951243	348
3	2683	190.751211951243	349
3	2683	190.751211951243	350
3	2705	192.661082471979	351
3	2705	192.661082471979	352
3	2705	192.661082471979	353
3	2728	193.942682085978	354
3	2728	193.942682085978	355
3	2728	193.942682085978	356
3	2759	195.418508945489	357
3	2759	195.418508945489	358
3	2759	195.418508945489	359
3	2774	197.032603617194	360
3	2774	197.032603617194	361
3	2774	197.032603617194	362
3	2798	198.664278384299	363
3	2798	198.664278384299	364
3	2798	198.664278384299	365
3	2822	200.430180742718	366
3	2822	200.430180742718	367
3	2822	200.430180742718	368
3	2843	202.089207738425	369
3	2843	202.089207738425	370
3	2843	202.089207738425	371
3	2868	203.486796549181	372
3	2868	203.486796549181	373
3	2868	203.486796549181	374
3	2893	205.335459186002	375
3	2893	205.335459186002	376
3	2893	205.335459186002	377
3	2912	206.937723234067	378
3	2912	206.937723234067	379
3	2912	206.937723234067	380
3	2935	208.043901524628	381
3	2935	208.043901524628	382
3	2935	208.043901524628	383
3	2960	209.102650622908	384
3	2960	209.102650622908	385
3	2960	209.102650622908	386
3	2983	212.381778660315	387
3	2983	212.381778660315	388
3	2983	212.381778660315	389
3	3008	214.115941647334	390
3	3008	214.115941647334	391
3	3008	214.115941647334	392
3	3036	215.357091615805	393
3	3036	215.357091615805	394
3	3036	215.357091615805	395
3	3057	217.304838470179	396
3	3057	217.304838470179	397
3	3057	217.304838470179	398
3	3076	218.449777438648	399
3	3076	218.449777438648	400
3	3076	218.449777438648	401
3	3098	220.3674760128	402
3	3098	220.3674760128	403
3	3098	220.3674760128	404
3	3129	221.553318252545	405
3	3129	221.553318252545	406
3	3129	221.553318252545	407
3	3145	222.92242941175	408
3	3145	222.92242941175	409
3	3145	222.92242941175	410
3	3172	224.629614984225	411
3	3172	224.629614984225	412
3	3172	224.629614984225	413
3	3188	226.335717642878	414
3	3188	226.335717642878	415
3	3188	226.335717642878	416
3	3211	227.843759289928	417
3	3211	227.843759289928	418
3	3211	227.843759289928	419
3	3233	229.825220237624	420
3	3233	229.825220237624	421
3	3233	229.825220237624	422
3	3260	234.384905990576	423
3	3260	234.384905990576	424
3	3260	234.384905990576	425
3	3285	235.565556398988	426
3	3285	235.565556398988	427
3	3285	235.565556398988	428
3	3313	237.130778959358	429
3	3313	237.130778959358	430
3	3313	237.130778959358	431
3	3329	238.146578006419	432
3	3329	238.146578006419	433
3	3329	238.146578006419	434
3	3352	239.288550680435	435
3	3352	239.288550680435	436
3	3352	239.288550680435	437
4	14	0.175636097543	0
4	14	0.175636097543	1
4	29	1.218265135098	2
4	29	1.218265135098	3
4	50	2.242125501845	4
4	50	2.242125501845	5
4	73	3.83478157488	6
4	73	3.83478157488	7
4	98	5.68455372045	8
4	98	5.68455372045	9
4	124	7.35355337822	10
4	124	7.35355337822	11
4	142	9.033053926808	12
4	142	9.033053926808	13
4	170	10.848303108032	14
4	170	10.848303108032	15
4	197	11.976723838805	16
4	197	11.976723838805	17
4	217	13.866946917467	18
4	217	13.866946917467	19
4	236	16.948939446731	20
4	236	16.948939446731	21
4	260	18.560764360422	22
4	260	18.560764360422	23
4	286	20.528297985914	24
4	286	20.528297985914	25
4	306	22.228692926485	26
4	306	22.228692926485	27
4	337	23.376587430958	28
4	337	23.376587430958	29
4	352	24.683797372182	30
4	352	24.683797372182	31
4	379	25.959477488676	32
4	379	25.959477488676	33
4	397	27.671893957125	34
4	397	27.671893957125	35
4	420	28.773890812691	36
4	420	28.773890812691	37
4	444	30.353730836431	38
4	444	30.353730836431	39
4	467	31.369026494751	40
4	467	31.369026494751	41
4	492	34.345681084387	42
4	492	34.345681084387	43
4	514	35.422564363354	44
4	514	35.422564363354	45
4	547	37.011451443291	46
4	547	37.011451443291	47
4	569	38.124881407396	48
4	569	38.124881407396	49
4	585	41.405155146102	50
4	585	41.405155146102	51
4	611	44.578538184228	52
4	611	44.578538184228	53
4	636	47.650276129676	54
4	636	47.650276129676	55
4	658	48.796565125917	56
4	658	48.796565125917	57
4	683	50.696834014885	58
4	683	50.696834014885	59
4	714	52.468715027659	60
4	714	52.468715027659	61
4	734	54.371908681951	62
4	734	54.371908681951	63
4	750	56.229649047954	64
4	750	56.229649047954	65
4	783	57.224704001272	66
4	783	57.224704001272	67
4	829	60.732436291047	68
4	829	60.732436291047	69
4	839	62.202634332915	70
4	839	62.202634332915	71
4	874	64.667030415276	72
4	874	64.667030415276	73
4	888	66.590358992314	74
4	888	66.590358992314	75
4	910	68.214647376596	76
4	910	68.214647376596	77
4	934	69.532190884531	78
4	934	69.532190884531	79
4	956	71.30258102599	80
4	956	71.30258102599	81
4	983	73.265903716479	82
4	983	73.265903716479	83
4	1005	75.901007767348	84
4	1005	75.901007767348	85
4	1028	77.745474556466	86
4	1028	77.745474556466	87
4	1052	78.793501423997	88
4	1052	78.793501423997	89
4	1073	80.68285143164	90
4	1073	80.68285143164	91
4	1097	81.98333762576	92
4	1097	81.98333762576	93
4	1119	83.636151061516	94
4	1119	83.636151061516	95
4	1142	85.084856579278	96
4	1142	85.084856579278	97
4	1165	86.89954652692	98
4	1165	86.89954652692	99
4	1191	90.087846396869	100
4	1191	90.087846396869	101
4	1214	91.897603173152	102
4	1214	91.897603173152	103
4	1237	93.146335046503	104
4	1237	93.146335046503	105
4	1259	94.803081127193	106
4	1259	94.803081127193	107
4	1282	96.484017663698	108
4	1282	96.484017663698	109
4	1306	98.005109515629	110
4	1306	98.005109515629	111
4	1329	99.459955622745	112
4	1329	99.459955622745	113
4	1356	100.590475609141	114
4	1356	100.590475609141	115
4	1374	101.909891793246	116
4	1374	101.909891793246	117
4	1398	103.486899195974	118
4	1398	103.486899195974	119
4	1422	106.235011471235	120
4	1422	106.235011471235	121
4	1466	108.555507430856	122
4	1466	108.555507430856	123
4	1499	111.376347215895	124
4	1499	111.376347215895	125
4	1526	112.915606263427	126
4	1526	112.915606263427	127
4	1546	114.572755921599	128
4	1546	114.572755921599	129
4	1567	118.080255173666	130
4	1567	118.080255173666	131
4	1586	119.670350918828	132
4	1586	119.670350918828	133
4	1608	121.485584348309	134
4	1608	121.485584348309	135
4	1630	122.781399829938	136
4	1630	122.781399829938	137
4	1658	124.276572886787	138
4	1658	124.276572886787	139
4	1676	125.877922313242	140
4	1676	125.877922313242	141
4	1699	127.483374813349	142
4	1699	127.483374813349	143
4	1724	128.575804004546	144
4	1724	128.575804004546	145
4	1747	129.996402041896	146
4	1747	129.996402041896	147
4	1777	131.663420696702	148
4	1777	131.663420696702	149
4	1792	132.973974580289	150
4	1792	132.973974580289	151
4	1815	134.15180295253	152
4	1815	134.15180295253	153
4	1839	136.362365807533	154
4	1839	136.362365807533	155
4	1871	137.557692082696	156
4	1871	137.557692082696	157
4	1887	139.267760823332	158
4	1887	139.267760823332	159
4	1915	140.377449236865	160
4	1915	140.377449236865	161
4	1933	142.201041628213	162
4	1933	142.201041628213	163
4	1954	143.848964457702	164
4	1954	143.848964457702	165
4	1983	145.389657037918	166
4	1983	145.389657037918	167
4	2002	146.49401440179	168
4	2002	146.49401440179	169
4	2023	147.748754548818	170
4	2023	147.748754548818	171
4	2042	149.136756571446	172
4	2042	149.136756571446	173
4	2065	150.389232249239	174
4	2065	150.389232249239	175
4	2097	151.804587355983	176
4	2097	151.804587355983	177
4	2108	153.043608423925	178
4	2108	153.043608423925	179
4	2130	154.996594012362	180
4	2130	154.996594012362	181
4	2155	156.751061933259	182
4	2155	156.751061933259	183
4	2176	157.801540131337	184
4	2176	157.801540131337	185
4	2200	158.829410084325	186
4	2200	158.829410084325	187
4	2222	160.593015372488	188
4	2222	160.593015372488	189
4	2250	161.894560319715	190
4	2250	161.894560319715	191
4	2277	163.811733210505	192
4	2277	163.811733210505	193
4	2293	165.178088426101	194
4	2293	165.178088426101	195
4	2315	166.816403362736	196
4	2315	166.816403362736	197
4	2337	168.554754251812	198
4	2337	168.554754251812	199
4	2360	170.232056530565	200
4	2360	170.232056530565	201
4	2384	172.007611208245	202
4	2384	172.007611208245	203
4	2408	173.927635972921	204
4	2408	173.927635972921	205
4	2431	175.272893197098	206
4	2431	175.272893197098	207
4	2461	176.722942262282	208
4	2461	176.722942262282	209
4	2476	178.178705137643	210
4	2476	178.178705137643	211
4	2504	179.677676381238	212
4	2504	179.677676381238	213
4	2522	181.374290973137	214
4	2522	181.374290973137	215
4	2544	182.447099683961	216
4	2544	182.447099683961	217
4	2573	183.563530420482	218
4	2573	183.563530420482	219
4	2591	185.101968113394	220
4	2591	185.101968113394	221
4	2614	186.731778623041	222
4	2614	186.731778623041	223
4	2636	187.799278088665	224
4	2636	187.799278088665	225
4	2659	189.358959286248	226
4	2659	189.358959286248	227
4	2682	190.751167336391	228
4	2682	190.751167336391	229
4	2706	192.664113844649	230
4	2706	192.664113844649	231
4	2741	193.974455989903	232
4	2741	193.974455989903	233
4	2751	195.398386284406	234
4	2751	195.398386284406	235
4	2775	197.034924150598	236
4	2775	197.034924150598	237
4	2797	198.654319522225	238
4	2797	198.654319522225	239
4	2820	200.424139872611	240
4	2820	200.424139872611	241
4	2853	202.10715532924	242
4	2853	202.10715532924	243
4	2867	203.486426236434	244
4	2867	203.486426236434	245
4	2889	205.325113157724	246
4	2889	205.325113157724	247
4	2916	206.954115927382	248
4	2916	206.954115927382	249
4	2937	208.052345107141	250
4	2937	208.052345107141	251
4	2958	209.097009663247	252
4	2958	209.097009663247	253
4	2984	212.389390713616	254
4	2984	212.389390713616	255
4	3007	214.114319699534	256
4	3007	214.114319699534	257
4	3035	215.352503083607	258
4	3035	215.352503083607	259
4	3058	217.305287288783	260
4	3058	217.305287288783	261
4	3081	218.454229822701	262
4	3081	218.454229822701	263
4	3102	220.383629837815	264
4	3102	220.383629837815	265
4	3121	221.540068653812	266
4	3121	221.540068653812	267
4	3144	222.921656743272	268
4	3144	222.921656743272	269
4	3196	226.354284021667	270
4	3196	226.354284021667	271
4	3210	227.838246657494	272
4	3210	227.838246657494	273
4	3235	229.82913327367	274
4	3235	229.82913327367	275
4	3261	234.391682847561	276
4	3261	234.391682847561	277
4	3284	235.560616025609	278
4	3284	235.560616025609	279
4	3307	237.121414454107	280
4	3307	237.121414454107	281
4	3330	238.149555576964	282
4	3330	238.149555576964	283
4	3357	239.303844183171	284
4	3357	239.303844183171	285
5	39	1.230995637088	0
5	39	1.230995637088	1
5	39	1.230995637088	2
5	62	2.283883144774	3
5	62	2.283883144774	4
5	62	2.283883144774	5
5	85	3.855489837616	6
5	85	3.855489837616	7
5	85	3.855489837616	8
5	106	5.693996631684	9
5	106	5.693996631684	10
5	106	5.693996631684	11
5	125	7.356558046528	12
5	125	7.356558046528	13
5	125	7.356558046528	14
5	150	9.050069800727	15
5	150	9.050069800727	16
5	150	9.050069800727	17
5	175	10.852736148297	18
5	175	10.852736148297	19
5	175	10.852736148297	20
5	198	11.977546447786	21
5	198	11.977546447786	22
5	198	11.977546447786	23
5	218	13.868599128485	24
5	218	13.868599128485	25
5	218	13.868599128485	26
5	244	16.981819092746	27
5	244	16.981819092746	28
5	244	16.981819092746	29
5	271	18.587885498675	30
5	271	18.587885498675	31
5	271	18.587885498675	32
5	294	20.569985192374	33
5	294	20.569985192374	34
5	294	20.569985192374	35
5	314	22.246897513579	36
5	314	22.246897513579	37
5	314	22.246897513579	38
5	338	23.379746994651	39
5	338	23.379746994651	40
5	338	23.379746994651	41
5	363	24.700880124503	42
5	363	24.700880124503	43
5	363	24.700880124503	44
5	383	25.970332749206	45
5	383	25.970332749206	46
5	383	25.970332749206	47
5	404	27.705293038164	48
5	404	27.705293038164	49
5	404	27.705293038164	50
5	429	28.78850670863	51
5	429	28.78850670863	52
5	429	28.78850670863	53
5	455	30.366804695038	54
5	455	30.366804695038	55
5	455	30.366804695038	56
5	478	31.406025184223	57
5	478	31.406025184223	58
5	478	31.406025184223	59
5	503	34.416578807753	60
5	503	34.416578807753	61
5	503	34.416578807753	62
5	523	35.439932600569	63
5	523	35.439932600569	64
5	523	35.439932600569	65
5	543	37.005015565266	66
5	543	37.005015565266	67
5	543	37.005015565266	68
5	570	38.130766978874	69
5	570	38.130766978874	70
5	570	38.130766978874	71
5	597	41.431847001139	72
5	597	41.431847001139	73
5	597	41.431847001139	74
5	622	44.594237690902	75
5	622	44.594237690902	76
5	622	44.594237690902	77
5	647	47.666899952606	78
5	647	47.666899952606	79
5	647	47.666899952606	80
5	665	48.820176389157	81
5	665	48.820176389157	82
5	665	48.820176389157	83
5	693	50.716016463844	84
5	693	50.716016463844	85
5	693	50.716016463844	86
5	713	52.461785226949	87
5	713	52.461785226949	88
5	713	52.461785226949	89
5	732	54.365430709221	90
5	732	54.365430709221	91
5	732	54.365430709221	92
5	762	56.250775604849	93
5	762	56.250775604849	94
5	762	56.250775604849	95
5	779	57.217926124013	96
5	779	57.217926124013	97
5	779	57.217926124013	98
5	805	59.135772401387	99
5	805	59.135772401387	100
5	805	59.135772401387	101
5	825	60.714295887736	102
5	825	60.714295887736	103
5	825	60.714295887736	104
5	851	62.240264679061	105
5	851	62.240264679061	106
5	851	62.240264679061	107
5	870	64.663059186043	108
5	870	64.663059186043	109
5	870	64.663059186043	110
5	899	66.609134594921	111
5	899	66.609134594921	112
5	899	66.609134594921	113
5	918	68.231957049667	114
5	918	68.231957049667	115
5	918	68.231957049667	116
5	939	69.54164496419	117
5	939	69.54164496419	118
5	939	69.54164496419	119
5	965	71.319656259167	120
5	965	71.319656259167	121
5	965	71.319656259167	122
5	991	73.281503738946	123
5	991	73.281503738946	124
5	991	73.281503738946	125
5	1013	75.92362045214	126
5	1013	75.92362045214	127
5	1013	75.92362045214	128
5	1033	77.748164527022	129
5	1033	77.748164527022	130
5	1033	77.748164527022	131
5	1062	78.806550872172	132
5	1062	78.806550872172	133
5	1062	78.806550872172	134
5	1082	80.702765123456	135
5	1082	80.702765123456	136
5	1082	80.702765123456	137
5	1104	81.993759199834	138
5	1104	81.993759199834	139
5	1104	81.993759199834	140
5	1131	83.669110108427	141
5	1131	83.669110108427	142
5	1131	83.669110108427	143
5	1154	85.115521812688	144
5	1154	85.115521812688	145
5	1154	85.115521812688	146
5	1173	86.926167394142	147
5	1173	86.926167394142	148
5	1173	86.926167394142	149
5	1196	90.095457389361	150
5	1196	90.095457389361	151
5	1196	90.095457389361	152
5	1221	91.909861411946	153
5	1221	91.909861411946	154
5	1221	91.909861411946	155
5	1248	93.172732514636	156
5	1248	93.172732514636	157
5	1248	93.172732514636	158
5	1266	94.821767832296	159
5	1266	94.821767832296	160
5	1266	94.821767832296	161
5	1294	96.507473074498	162
5	1294	96.507473074498	163
5	1294	96.507473074498	164
5	1311	98.011274125975	165
5	1311	98.011274125975	166
5	1311	98.011274125975	167
5	1337	99.473157929967	168
5	1337	99.473157929967	169
5	1337	99.473157929967	170
5	1357	100.595805725079	171
5	1357	100.595805725079	172
5	1357	100.595805725079	173
5	1383	101.931169160846	174
5	1383	101.931169160846	175
5	1383	101.931169160846	176
5	1409	103.531671994145	177
5	1409	103.531671994145	178
5	1409	103.531671994145	179
5	1434	106.271627483667	180
5	1434	106.271627483667	181
5	1434	106.271627483667	182
5	1454	107.379427871736	183
5	1454	107.379427871736	184
5	1454	107.379427871736	185
5	1477	108.599948044641	186
5	1477	108.599948044641	187
5	1477	108.599948044641	188
5	1494	111.366238279926	189
5	1494	111.366238279926	190
5	1494	111.366238279926	191
5	1519	112.894406928645	192
5	1519	112.894406928645	193
5	1519	112.894406928645	194
5	1545	114.571986487085	195
5	1545	114.571986487085	196
5	1545	114.571986487085	197
5	1571	118.087814265519	198
5	1571	118.087814265519	199
5	1571	118.087814265519	200
5	1596	119.682070445127	201
5	1596	119.682070445127	202
5	1596	119.682070445127	203
5	1616	121.49949036515	204
5	1616	121.49949036515	205
5	1616	121.49949036515	206
5	1638	122.83168447044	207
5	1638	122.83168447044	208
5	1638	122.83168447044	209
5	1659	124.28040479215	210
5	1659	124.28040479215	211
5	1659	124.28040479215	212
5	1688	125.898980538907	213
5	1688	125.898980538907	214
5	1688	125.898980538907	215
5	1707	127.498254217094	216
5	1707	127.498254217094	217
5	1707	127.498254217094	218
5	1734	128.587595646613	219
5	1734	128.587595646613	220
5	1734	128.587595646613	221
5	1751	130.005009555226	222
5	1751	130.005009555226	223
5	1751	130.005009555226	224
5	1780	131.677515174383	225
5	1780	131.677515174383	226
5	1780	131.677515174383	227
5	1803	132.991342920301	228
5	1803	132.991342920301	229
5	1803	132.991342920301	230
5	1826	134.191499690599	231
5	1826	134.191499690599	232
5	1826	134.191499690599	233
5	1851	136.398713444015	234
5	1851	136.398713444015	235
5	1851	136.398713444015	236
5	1872	137.558004147885	237
5	1872	137.558004147885	238
5	1872	137.558004147885	239
5	1895	139.274854021331	240
5	1895	139.274854021331	241
5	1895	139.274854021331	242
5	1914	140.376299560733	243
5	1914	140.376299560733	244
5	1914	140.376299560733	245
5	1943	142.213804642625	246
5	1943	142.213804642625	247
5	1943	142.213804642625	248
5	1962	143.865710209428	249
5	1962	143.865710209428	250
5	1962	143.865710209428	251
5	1989	145.400439737322	252
5	1989	145.400439737322	253
5	1989	145.400439737322	254
5	2012	146.509596017303	255
5	2012	146.509596017303	256
5	2012	146.509596017303	257
5	2054	149.182404984817	258
5	2054	149.182404984817	259
5	2054	149.182404984817	260
5	2090	151.79182824122	261
5	2090	151.79182824122	262
5	2090	151.79182824122	263
5	2114	153.05254572313	264
5	2114	153.05254572313	265
5	2114	153.05254572313	266
5	2139	155.019070584396	267
5	2139	155.019070584396	268
5	2139	155.019070584396	269
5	2163	156.75921071994	270
5	2163	156.75921071994	271
5	2163	156.75921071994	272
5	2188	157.826628883161	273
5	2188	157.826628883161	274
5	2188	157.826628883161	275
5	2207	158.841226173277	276
5	2207	158.841226173277	277
5	2207	158.841226173277	278
5	2230	160.613269291016	279
5	2230	160.613269291016	280
5	2230	160.613269291016	281
5	2257	161.906104639019	282
5	2257	161.906104639019	283
5	2257	161.906104639019	284
5	2278	163.817995105311	285
5	2278	163.817995105311	286
5	2278	163.817995105311	287
5	2303	165.193052047596	288
5	2303	165.193052047596	289
5	2303	165.193052047596	290
5	2320	166.823828029476	291
5	2320	166.823828029476	292
5	2320	166.823828029476	293
5	2345	168.57645444647	294
5	2345	168.57645444647	295
5	2345	168.57645444647	296
5	2372	170.257231871127	297
5	2372	170.257231871127	298
5	2372	170.257231871127	299
5	2391	172.018237604949	300
5	2391	172.018237604949	301
5	2391	172.018237604949	302
5	2418	173.940576885753	303
5	2418	173.940576885753	304
5	2418	173.940576885753	305
5	2441	175.301824562652	306
5	2441	175.301824562652	307
5	2441	175.301824562652	308
5	2462	176.72627556127	309
5	2462	176.72627556127	310
5	2462	176.72627556127	311
5	2484	178.192157136142	312
5	2484	178.192157136142	313
5	2484	178.192157136142	314
5	2503	179.673475102297	315
5	2503	179.673475102297	316
5	2503	179.673475102297	317
5	2527	181.381552603093	318
5	2527	181.381552603093	319
5	2527	181.381552603093	320
5	2553	182.479407785078	321
5	2553	182.479407785078	322
5	2553	182.479407785078	323
5	2579	183.577509291861	324
5	2579	183.577509291861	325
5	2579	183.577509291861	326
5	2596	185.110485999029	327
5	2596	185.110485999029	328
5	2596	185.110485999029	329
5	2622	186.743305231313	330
5	2622	186.743305231313	331
5	2622	186.743305231313	332
5	2648	187.826217703185	333
5	2648	187.826217703185	334
5	2648	187.826217703185	335
5	2671	189.414793088051	336
5	2671	189.414793088051	337
5	2671	189.414793088051	338
5	2694	190.764061662403	339
5	2694	190.764061662403	340
5	2694	190.764061662403	341
5	2717	192.679842358096	342
5	2717	192.679842358096	343
5	2717	192.679842358096	344
5	2733	193.954801057501	345
5	2733	193.954801057501	346
5	2733	193.954801057501	347
5	2763	195.445837383797	348
5	2763	195.445837383797	349
5	2763	195.445837383797	350
5	2782	197.049035626141	351
5	2782	197.049035626141	352
5	2782	197.049035626141	353
5	2809	198.701317109237	354
5	2809	198.701317109237	355
5	2809	198.701317109237	356
5	2832	200.440763381979	357
5	2832	200.440763381979	358
5	2832	200.440763381979	359
5	2852	202.105192394794	360
5	2852	202.105192394794	361
5	2852	202.105192394794	362
5	2878	203.556098806739	363
5	2878	203.556098806739	364
5	2878	203.556098806739	365
5	2901	205.361010719918	366
5	2901	205.361010719918	367
5	2901	205.361010719918	368
5	2917	206.956969512846	369
5	2917	206.956969512846	370
5	2917	206.956969512846	371
5	2941	208.054571442191	372
5	2941	208.054571442191	373
5	2941	208.054571442191	374
5	2967	209.109951706222	375
5	2967	209.109951706222	376
5	2967	209.109951706222	377
5	2989	212.399329608717	378
5	2989	212.399329608717	379
5	2989	212.399329608717	380
5	3018	214.16770209025	381
5	3018	214.16770209025	382
5	3018	214.16770209025	383
5	3034	215.352501581392	384
5	3034	215.352501581392	385
5	3034	215.352501581392	386
5	3064	217.316583037981	387
5	3064	217.316583037981	388
5	3064	217.316583037981	389
5	3082	218.459454137286	390
5	3082	218.459454137286	391
5	3082	218.459454137286	392
5	3103	220.389555344795	393
5	3103	220.389555344795	394
5	3103	220.389555344795	395
5	3133	221.570851018733	396
5	3133	221.570851018733	397
5	3133	221.570851018733	398
5	3156	222.93724491618	399
5	3156	222.93724491618	400
5	3156	222.93724491618	401
5	3173	224.632560082215	402
5	3173	224.632560082215	403
5	3173	224.632560082215	404
5	3197	226.359002169589	405
5	3197	226.359002169589	406
5	3197	226.359002169589	407
5	3222	227.861596527946	408
5	3222	227.861596527946	409
5	3222	227.861596527946	410
5	3243	229.836184655552	411
5	3243	229.836184655552	412
5	3243	229.836184655552	413
5	3266	234.396786456188	414
5	3266	234.396786456188	415
5	3266	234.396786456188	416
5	3290	235.567677337648	417
5	3290	235.567677337648	418
5	3290	235.567677337648	419
5	3312	237.127593155642	420
5	3312	237.127593155642	421
5	3312	237.127593155642	422
5	3341	238.172426903539	423
5	3341	238.172426903539	424
5	3341	238.172426903539	425
5	3358	239.308029642394	426
5	3358	239.308029642394	427
5	3358	239.308029642394	428
6	42	1.240995637088	0
6	65	2.293883144774	1
6	88	3.865489837616	2
6	111	5.703996631684	3
6	134	7.366558046528	4
6	157	9.060069800727	5
6	180	10.862736148297	6
6	203	11.987546447786	7
6	226	13.878599128485	8
6	247	16.991819092746	9
6	274	18.597885498675	10
6	297	20.579985192374	11
6	320	22.256897513579	12
6	343	23.389746994651	13
6	366	24.710880124503	14
6	389	25.980332749206	15
6	407	27.715293038164	16
6	458	30.376804695038	17
6	506	34.426578807753	18
6	529	35.449932600569	19
6	550	37.015015565266	20
6	575	38.140766978874	21
6	600	41.441847001139	22
6	625	44.604237690902	23
6	650	47.676899952606	24
6	669	48.830176389157	25
6	696	50.726016463844	26
6	717	52.471785226949	27
6	808	59.145772401387	28
6	828	60.724295887736	29
6	854	62.250264679061	30
6	877	64.673059186043	31
6	902	66.619134594921	32
6	925	68.241957049667	33
6	948	69.55164496419	34
6	971	71.329656259167	35
6	994	73.291503738946	36
6	1019	75.93362045214	37
6	1039	77.758164527022	38
6	1065	78.816550872172	39
6	1088	80.712765123456	40
6	1107	82.003759199834	41
6	1134	83.679110108427	42
6	1157	85.125521812688	43
6	1177	86.936167394142	44
6	1205	90.105457389361	45
6	1228	91.919861411946	46
6	1251	93.182732514636	47
6	1270	94.831767832296	48
6	1297	96.517473074498	49
6	1316	98.021274125975	50
6	1343	99.483157929967	51
6	1363	100.605805725079	52
6	1412	103.541671994145	53
6	1437	106.281627483667	54
6	1457	107.389427871736	55
6	1480	108.609948044641	56
6	1498	111.376238279926	57
6	1525	112.904406928645	58
6	1549	114.581986487085	59
6	1576	118.097814265519	60
6	1599	119.692070445127	61
6	1622	121.50949036515	62
6	1641	122.84168447044	63
6	1665	124.29040479215	64
6	1714	127.508254217094	65
6	1737	128.597595646613	66
6	1760	130.015009555226	67
6	1783	131.687515174383	68
6	1806	133.001342920301	69
6	1829	134.201499690599	70
6	1900	139.284854021331	71
6	1946	142.223804642625	72
6	1965	143.875710209428	73
6	1992	145.410439737322	74
6	2015	146.519596017303	75
6	2057	149.192404984817	76
6	2096	151.80182824122	77
6	2122	153.06254572313	78
6	2145	155.029070584396	79
6	2168	156.76921071994	80
6	2191	157.836628883161	81
6	2210	158.851226173277	82
6	2234	160.623269291016	83
6	2260	161.916104639019	84
6	2283	163.827995105311	85
6	2306	165.203052047596	86
6	2325	166.833828029476	87
6	2348	168.58645444647	88
6	2375	170.267231871127	89
6	2395	172.028237604949	90
6	2421	173.950576885753	91
6	2444	175.311824562652	92
6	2467	176.73627556127	93
6	2490	178.202157136142	94
6	2511	179.683475102297	95
6	2559	182.489407785078	96
6	2582	183.587509291861	97
6	2602	185.120485999029	98
6	2628	186.753305231313	99
6	2651	187.836217703185	100
6	2674	189.424793088051	101
6	2697	190.774061662403	102
6	2720	192.689842358096	103
6	2740	193.964801057501	104
6	2766	195.455837383797	105
6	2789	197.059035626141	106
6	2812	198.711317109237	107
6	2835	200.450763381979	108
6	2881	203.566098806739	109
6	2904	205.371010719918	110
6	2923	206.966969512846	111
6	2950	208.064571442191	112
6	2973	209.119951706222	113
6	2998	212.409329608717	114
6	3021	214.17770209025	115
6	3039	215.362501581392	116
6	3067	217.326583037981	117
6	3090	218.469454137286	118
6	3109	220.399555344795	119
6	3136	221.580851018733	120
6	3159	222.94724491618	121
6	3179	224.642560082215	122
6	3202	226.369002169589	123
6	3225	227.871596527946	124
6	3248	229.846184655552	125
6	3275	234.406786456188	126
6	3318	237.137593155642	127
6	3344	238.182426903539	128

