version 2
run General-1-20231004-18:44:46-10256
attr configname General
attr datetime 20231004-18:44:46
attr experiment General
attr inifile omnetpp.ini
attr iterationvars ""
attr iterationvarsf ""
attr measurement ""
attr network Multihop
attr processid 10256
attr repetition 1
attr replication #1
attr resultdir results
attr runnumber 1
attr seedset 1
param Multihop.node[*].transmissionTime "uniform(1s, 2s)"
param Multihop.node[*].delayTime "uniform(0.01s, 0.2s)"
param Multihop.node[*].processingTime exponential(0.01s)
param Multihop.node[0].lossProbability 0
param Multihop.node[1].lossProbability 0.2
param Multihop.node[2].lossProbability 0.6
param Multihop.node[3].lossProbability 0.3
param Multihop.node[4].lossProbability 0.1
param Multihop.node[5].lossProbability 0.5

vector 0 Multihop.node[0] txVector ETV
vector 1 Multihop.node[1] txVector ETV
vector 2 Multihop.node[2] txVector ETV
vector 3 Multihop.node[3] txVector ETV
vector 4 Multihop.node[4] txVector ETV
vector 5 Multihop.node[5] rxVector ETV
0	1	0.089234179703	0
0	5	2.086418987836	1
0	9	3.214543435608	2
0	11	4.450632411872	3
0	13	5.847213138013	4
0	17	7.23512387823	5
0	21	9.170662950842	6
0	25	10.483936463833	7
0	29	11.927389357589	8
0	33	13.4618032648	9
0	37	14.91900807398	10
0	39	16.858135868913	11
0	49	18.636525104406	12
0	53	20.50154534972	13
0	55	22.331148714411	14
0	57	23.604198691786	15
0	61	24.663441888873	16
0	71	26.256507405663	17
0	77	27.398627538584	18
0	87	28.432798848605	19
0	89	29.654923397001	20
0	95	30.728287571227	21
0	99	32.631657742547	22
0	101	34.15645712556	23
0	105	35.24008013087	24
0	109	37.150528510685	25
0	111	38.734917634518	26
0	115	40.30082966306	27
0	121	42.257365321859	28
0	129	43.790813814734	29
0	139	45.556298921934	30
0	143	47.439424393584	31
0	145	48.887404576528	32
0	149	50.779540445075	33
0	151	52.317965139753	34
0	155	53.970264017933	35
0	165	55.541272580043	36
0	169	56.89521167183	37
0	173	58.251743388713	38
0	183	60.133085217678	39
0	187	61.19715254463	40
0	191	63.138989492438	41
0	195	64.901909559618	42
0	197	66.203270060129	43
0	201	67.976009203473	44
0	211	69.554643135404	45
0	213	71.022035820761	46
0	223	72.291036870449	47
0	229	74.033801697546	48
0	239	75.264164501687	49
0	241	76.436442858658	50
0	243	77.832756146907	51
0	245	78.940121455236	52
0	255	80.449931733428	53
0	257	81.728250576068	54
0	261	82.961873103749	55
0	265	84.531939761598	56
0	267	85.899783002097	57
0	271	87.712777973736	58
0	275	89.430169575732	59
0	285	90.857079399401	60
0	287	92.010417883401	61
0	289	93.947608209332	62
0	291	95.864018082503	63
0	299	97.645976545173	64
0	301	98.775746157975	65
0	305	100.070105629857	66
0	309	101.344750783057	67
0	313	102.496887940331	68
0	323	104.435599638265	69
0	329	105.639957762439	70
0	331	107.399306561681	71
0	333	109.050427127047	72
0	343	110.090110628982	73
0	347	111.199446692713	74
0	357	112.708235431346	75
0	363	114.472477043862	76
0	367	115.567896288237	77
0	373	116.924359970143	78
0	377	118.855372898629	79
0	381	120.695018109981	80
0	383	122.019535610335	81
0	393	123.747547250589	82
0	403	125.174358094459	83
0	413	126.377868412178	84
0	423	127.401970037375	85
0	425	128.436817761626	86
0	427	129.791394995408	87
0	429	130.869914964888	88
0	433	132.563100163009	89
0	439	134.022645443793	90
0	441	135.494728869408	91
0	445	136.600120119633	92
0	449	138.485809980541	93
0	453	139.767286746179	94
0	463	141.663566994828	95
0	467	143.009855506125	96
0	471	144.136381664428	97
0	473	145.449992494772	98
0	477	147.402823619193	99
0	481	148.651523819075	100
0	485	149.886792145784	101
0	487	151.430689382714	102
0	493	152.62194965279	103
0	501	153.637822632559	104
0	505	155.505340087342	105
0	515	156.760042834676	106
0	519	158.107732851173	107
0	529	159.805242346947	108
0	539	160.809905659755	109
0	543	161.833074390072	110
0	547	162.96326910809	111
0	553	164.131099906865	112
0	557	165.405000231809	113
0	567	166.624866529948	114
0	577	167.641329294418	115
0	581	168.72487564117	116
0	585	170.168683624475	117
0	589	171.235715675282	118
0	591	172.872006288844	119
0	595	174.644856719647	120
0	599	175.883067634769	121
0	609	177.164284526251	122
0	613	178.686571094321	123
0	617	180.161723831782	124
0	627	182.0005032405	125
0	629	183.441331562467	126
0	635	184.921609745475	127
0	645	186.427073676253	128
0	647	187.746297468312	129
0	651	189.636814586699	130
0	653	190.85431380558	131
0	657	192.054522800838	132
0	661	193.210739633647	133
0	665	195.198804311334	134
0	671	196.247104323349	135
0	681	197.557432161524	136
0	689	199.182062641597	137
1	3	0.126198958082	0
1	7	2.165910130709	1
1	15	5.868292071471	2
1	19	7.263852114899	3
1	23	9.188097847749	4
1	27	10.496544622332	5
1	31	11.961919022391	6
1	35	13.477436717113	7
1	41	16.880722641025	8
1	51	18.664194616592	9
1	59	23.625301332095	10
1	63	24.684578765151	11
1	73	26.28180048725	12
1	79	27.4184099974	13
1	91	29.67125782258	14
1	97	30.739560116547	15
1	103	34.191329579507	16
1	107	35.253631607847	17
1	113	38.75443521577	18
1	117	40.313853952225	19
1	123	42.297310278961	20
1	131	43.801277874932	21
1	141	45.574081359126	22
1	147	48.902146048069	23
1	153	52.332447733707	24
1	157	53.99042061246	25
1	167	55.565679369898	26
1	171	56.919186776106	27
1	175	58.26186076685	28
1	185	60.147475080291	29
1	189	61.211929730403	30
1	193	63.163755841337	31
1	199	66.214929777464	32
1	203	67.986099691601	33
1	215	71.04985545223	34
1	225	72.303168259055	35
1	231	74.050899495688	36
1	247	78.951198813385	37
1	259	81.739210801246	38
1	263	82.977284689912	39
1	269	85.9132045255	40
1	273	87.73226993835	41
1	277	89.454107720167	42
1	293	95.883597779657	43
1	303	98.790221767656	44
1	307	100.08087410551	45
1	311	101.356513603725	46
1	315	102.511526309482	47
1	325	104.485639176538	48
1	335	109.077240568094	49
1	345	110.101689253256	50
1	349	111.21187569552	51
1	359	112.720627318422	52
1	365	114.484246868349	53
1	369	115.578897893402	54
1	375	116.942953976604	55
1	379	118.875135750945	56
1	385	122.036932478247	57
1	395	123.770587296267	58
1	405	125.184438443502	59
1	415	126.393883241416	60
1	431	130.880042906525	61
1	435	132.605623780033	62
1	443	135.511722049414	63
1	447	136.617763916717	64
1	451	138.500188593265	65
1	455	139.780050727757	66
1	465	141.682172424842	67
1	469	143.049821494044	68
1	475	145.462456530002	69
1	479	147.432760060167	70
1	483	148.678403223579	71
1	489	151.449577109618	72
1	495	152.63245954425	73
1	503	153.663248009239	74
1	507	155.51619844339	75
1	517	156.782078697809	76
1	521	158.118509482091	77
1	531	159.818310361216	78
1	541	160.827491440359	79
1	545	161.851317408842	80
1	549	162.978734927321	81
1	555	164.14120040747	82
1	559	165.415325011454	83
1	569	166.638416154401	84
1	579	167.651782116781	85
1	583	168.735070719143	86
1	587	170.195384611487	87
1	593	172.894237238334	88
1	597	174.65531106604	89
1	601	175.913099081705	90
1	611	177.19770602823	91
1	615	178.715345724386	92
1	619	180.173223692662	93
1	631	183.455385478156	94
1	637	184.942792201518	95
1	649	187.771921748387	96
1	655	190.875721909966	97
1	659	192.071663669636	98
1	663	193.222302568965	99
1	667	195.231736997574	100
1	673	196.262095604215	101
1	683	197.569666990185	102
1	691	199.204913195937	103
2	43	16.906955854617	0
2	65	24.699885441612	1
2	75	26.297119938795	2
2	81	27.4392168093	3
2	93	29.682268987467	4
2	119	40.326480795861	5
2	125	42.314103897198	6
2	133	43.812785709886	7
2	159	54.001770964897	8
2	177	58.278754491377	9
2	205	68.008445473075	10
2	217	71.067870015703	11
2	227	72.319410283631	12
2	233	74.063238612745	13
2	249	78.964605674066	14
2	279	89.469690607971	15
2	295	95.893964413647	16
2	317	102.522039432791	17
2	327	104.517990423584	18
2	337	109.101619524603	19
2	351	111.246698042079	20
2	361	112.73139892012	21
2	371	115.590444136401	22
2	387	122.06028132455	23
2	397	123.794706921762	24
2	407	125.220522851421	25
2	417	126.420403498989	26
2	437	132.619691217593	27
2	457	139.790292467181	28
2	491	151.46007044909	29
2	497	152.647558060089	30
2	509	155.527915298551	31
2	523	158.128880995551	32
2	533	159.83460978116	33
2	551	163.000276850946	34
2	561	165.452639048955	35
2	571	166.656197096693	36
2	603	175.923858429148	37
2	621	180.190995603654	38
2	633	183.465475004511	39
2	639	184.953362766759	40
2	669	195.254301229554	41
2	675	196.272937942736	42
2	685	197.589478258883	43
2	693	199.229153241329	44
3	45	16.917929787008	0
3	67	24.712086310059	1
3	83	27.452762086074	2
3	127	42.331882248153	3
3	135	43.838507303574	4
3	161	54.023489396556	5
3	179	58.289521055971	6
3	207	68.024806353776	7
3	219	71.078596598957	8
3	235	74.07374422464	9
3	251	78.977242185011	10
3	281	89.485283458564	11
3	297	95.914586940628	12
3	319	102.545546989173	13
3	339	109.117694403725	14
3	353	111.262899844517	15
3	389	122.072089424901	16
3	399	123.809775444989	17
3	409	125.234011500165	18
3	419	126.434998122494	19
3	459	139.83402638433	20
3	499	152.66615962099	21
3	511	155.540266104716	22
3	525	158.15445893481	23
3	535	159.849069780631	24
3	563	165.477875873094	25
3	573	166.685849912243	26
3	605	175.944656292191	27
3	623	180.20728954299	28
3	641	184.965077528114	29
3	677	196.287278460828	30
3	687	197.603356256987	31
3	695	199.24436712515	32
4	47	16.935231064059	0
4	69	24.725505998224	1
4	85	27.468670420101	2
4	137	43.848809848024	3
4	163	54.043923520686	4
4	181	58.314983409143	5
4	209	68.04927072901	6
4	221	71.094992189956	7
4	237	74.091060233528	8
4	253	79.021559140282	9
4	283	89.499776130976	10
4	321	102.55909490269	11
4	341	109.135283565831	12
4	355	111.274318559836	13
4	391	122.093706808542	14
4	401	123.845704833364	15
4	411	125.245838135428	16
4	421	126.454393894903	17
4	461	139.849647010309	18
4	513	155.555668353725	19
4	527	158.187537780627	20
4	537	159.861817013085	21
4	565	165.495165564789	22
4	575	166.697896986486	23
4	607	175.956731191544	24
4	625	180.219757284969	25
4	643	184.98436883717	26
4	679	196.297288598764	27
4	697	199.266552408315	28
5	48	16.945231064059	0
5	86	27.478670420101	1
5	138	43.858809848024	2
5	164	54.053923520686	3
5	182	58.324983409143	4
5	210	68.05927072901	5
5	254	79.031559140282	6
5	342	109.145283565831	7
5	402	123.855704833364	8
5	412	125.255838135428	9
5	422	126.464393894903	10
5	462	139.859647010309	11
5	514	155.565668353725	12
5	528	158.197537780627	13
5	576	166.707896986486	14
5	680	196.307288598764	15

