version 2
run General-4-20231004-18:44:46-10256
attr configname General
attr datetime 20231004-18:44:46
attr experiment General
attr inifile omnetpp.ini
attr iterationvars ""
attr iterationvarsf ""
attr measurement ""
attr network Multihop
attr processid 10256
attr repetition 4
attr replication #4
attr resultdir results
attr runnumber 4
attr seedset 4
param Multihop.node[*].transmissionTime "uniform(1s, 2s)"
param Multihop.node[*].delayTime "uniform(0.01s, 0.2s)"
param Multihop.node[*].processingTime exponential(0.01s)
param Multihop.node[0].lossProbability 0
param Multihop.node[1].lossProbability 0.2
param Multihop.node[2].lossProbability 0.6
param Multihop.node[3].lossProbability 0.3
param Multihop.node[4].lossProbability 0.1
param Multihop.node[5].lossProbability 0.5

vector 0 Multihop.node[0] txVector ETV
vector 1 Multihop.node[1] txVector ETV
vector 2 Multihop.node[2] txVector ETV
vector 3 Multihop.node[3] txVector ETV
vector 4 Multihop.node[4] txVector ETV
vector 5 Multihop.node[5] rxVector ETV
0	1	0.193735669288	0
0	11	2.094357123985	1
0	15	3.235821296847	2
0	19	4.934241536227	3
0	23	6.567204635744	4
0	29	8.139561127559	5
0	33	9.531327322977	6
0	37	11.143852666173	7
0	41	12.787766929403	8
0	51	13.80679167054	9
0	55	14.872501209298	10
0	59	16.738383964322	11
0	69	18.663537123393	12
0	73	19.89229979358	13
0	77	21.073020387826	14
0	81	22.314058992931	15
0	87	23.946722971195	16
0	91	25.523719940021	17
0	95	26.991470293061	18
0	105	28.074639387814	19
0	107	29.885544324679	20
0	111	31.011725985365	21
0	115	32.697314188736	22
0	119	34.012987676695	23
0	123	35.71115328154	24
0	127	37.6157293738	25
0	135	39.462451645559	26
0	139	40.542430885522	27
0	149	41.637628962905	28
0	153	43.581579636005	29
0	157	45.173453281787	30
0	161	46.540222950666	31
0	163	48.060897352095	32
0	167	49.3679100237	33
0	177	51.297278623949	34
0	183	52.947719733152	35
0	193	54.429179676497	36
0	203	55.749795323392	37
0	213	56.862305659024	38
0	223	58.799440164506	39
0	227	60.261769526792	40
0	237	61.57056409136	41
0	241	62.660705813827	42
0	251	64.222174277917	43
0	253	65.88447671306	44
0	257	67.468020244657	45
0	261	69.372396866481	46
0	265	71.269088721524	47
0	273	72.883908170431	48
0	275	74.375695808015	49
0	279	76.307110075529	50
0	289	77.807071529717	51
0	293	79.677463671115	52
0	301	80.816645470603	53
0	303	82.132921976425	54
0	309	83.886777426271	55
0	319	85.113758445639	56
0	329	87.111162433555	57
0	337	88.988240337386	58
0	339	90.71596900878	59
0	349	92.405754302782	60
0	351	93.422237920961	61
0	355	94.735604547117	62
0	359	96.619646934014	63
0	361	97.722442174483	64
0	365	98.816522817047	65
0	375	100.011470504723	66
0	385	101.403138562724	67
0	387	102.487038945233	68
0	397	104.102400960087	69
0	399	105.508160174045	70
0	403	107.479863495252	71
0	407	108.765108088882	72
0	411	110.227957846982	73
0	413	111.983607136098	74
0	417	113.235105602223	75
0	421	114.822740008508	76
0	431	115.84814170996	77
0	435	116.956132903148	78
0	445	118.483647308464	79
0	455	120.124208227883	80
0	457	121.51325855885	81
0	467	122.625132875203	82
0	471	124.154205257923	83
0	475	125.216772163671	84
0	477	126.670601402328	85
0	481	128.020332500024	86
0	487	129.889758417767	87
0	489	131.180598270998	88
0	491	132.926425835036	89
0	495	134.878094427206	90
0	503	136.198459079873	91
0	507	137.733479246415	92
0	509	139.306762850528	93
0	513	140.708461939042	94
0	515	142.064083597075	95
0	521	143.371488484472	96
0	525	144.778244310675	97
0	527	146.508459641982	98
0	531	148.104962918826	99
0	535	149.770219692413	100
0	541	151.390788942727	101
0	547	153.175399678445	102
0	551	154.393315814354	103
0	561	156.274717409548	104
0	563	157.779717821081	105
0	567	158.812777288643	106
0	577	160.653831592215	107
0	587	162.220311626479	108
0	591	163.33366853177	109
0	593	164.528779692169	110
0	597	166.378844827566	111
0	599	168.359282364988	112
0	603	170.018317892135	113
0	613	171.663766239456	114
0	617	173.194693106844	115
0	621	174.734141299886	116
0	623	176.251949404984	117
0	627	177.46566246372	118
0	629	179.30989142732	119
0	635	180.554690701806	120
0	639	181.924927997555	121
0	643	183.915356996156	122
0	651	185.07245046358	123
0	661	186.730527178071	124
0	667	188.474496667426	125
0	671	189.675478970785	126
0	675	191.084560041935	127
0	679	192.372977759377	128
0	681	193.928018026906	129
0	685	195.2683841888	130
0	695	196.325965527831	131
0	697	198.315417922488	132
1	3	0.205631491707	0
1	13	2.106899673373	1
1	17	3.269170161585	2
1	21	4.944293261269	3
1	25	6.58169091448	4
1	31	8.16627148186	5
1	35	9.544426242377	6
1	39	11.170516035306	7
1	43	12.798172861715	8
1	53	13.818725834131	9
1	57	14.90104999887	10
1	61	16.768809775465	11
1	71	18.675909301647	12
1	75	19.906099466445	13
1	79	21.087726320797	14
1	83	22.326582560767	15
1	89	23.961056582973	16
1	93	25.538163554183	17
1	97	27.004385984021	18
1	109	29.896331579501	19
1	113	31.051114596104	20
1	117	32.728210891574	21
1	121	34.027394037223	22
1	125	35.725876055193	23
1	129	37.638950975952	24
1	137	39.472908397964	25
1	141	40.554882608251	26
1	151	41.649406742514	27
1	155	43.62160814349	28
1	159	45.183671839819	29
1	165	48.088803865999	30
1	169	49.379290414313	31
1	179	51.334971203525	32
1	185	52.983948822809	33
1	195	54.460877461758	34
1	205	55.760545611644	35
1	215	56.879290233028	36
1	225	58.811012111407	37
1	229	60.285761786228	38
1	239	61.582737007312	39
1	243	62.670810627932	40
1	255	65.907454531714	41
1	259	67.478188834444	42
1	263	69.389406663895	43
1	267	71.280536039168	44
1	277	74.413167955293	45
1	281	76.322380226707	46
1	291	77.839908356238	47
1	295	79.700540521191	48
1	305	82.146196355286	49
1	311	83.911648373684	50
1	321	85.127248809822	51
1	331	87.130244614778	52
1	341	90.731976889423	53
1	353	93.478407231801	54
1	357	94.745805986042	55
1	363	97.735531876143	56
1	367	98.831533819951	57
1	377	100.025071130776	58
1	389	102.49921094719	59
1	401	105.518609337153	60
1	405	107.493016961901	61
1	409	108.780638328981	62
1	415	112.013510249188	63
1	419	113.257420579662	64
1	423	114.83420594544	65
1	433	115.859091328336	66
1	437	116.968418376574	67
1	447	118.494707029166	68
1	459	121.531249753793	69
1	469	122.640460879024	70
1	473	124.166387121427	71
1	479	126.682628930793	72
1	483	128.034677442785	73
1	493	132.947296277576	74
1	497	134.89512357151	75
1	505	136.211946758208	76
1	511	139.332762383036	77
1	517	142.075520824111	78
1	523	143.401520288676	79
1	529	146.535342634599	80
1	533	148.116558687632	81
1	537	149.780934324123	82
1	543	151.400827744284	83
1	549	153.188477379684	84
1	553	154.434959632078	85
1	565	157.792036675387	86
1	569	158.841497849195	87
1	579	160.692046420051	88
1	589	162.23081745432	89
1	595	164.545558651463	90
1	601	168.372463015156	91
1	605	170.031090532709	92
1	615	171.67377980737	93
1	619	173.209128404608	94
1	625	176.28589887462	95
1	631	179.344055271312	96
1	637	180.569999562338	97
1	641	181.936407521716	98
1	645	183.926663209007	99
1	653	185.089077707458	100
1	663	186.747691262504	101
1	669	188.534102565751	102
1	673	189.696613624772	103
1	677	191.108559476555	104
1	683	193.938828730637	105
1	687	195.281831854716	106
2	5	0.234984622813	0
2	27	6.600957657456	1
2	45	12.837177781731	2
2	63	16.796843443655	3
2	85	22.338076279317	4
2	99	27.014871643612	5
2	131	37.660956795747	6
2	143	40.581334116514	7
2	171	49.407076996936	8
2	181	51.347665063779	9
2	187	52.99590177207	10
2	197	54.478760327617	11
2	207	55.772692890742	12
2	217	56.903053467928	13
2	231	60.309841436797	14
2	245	62.683422936702	15
2	269	71.29692202427	16
2	283	76.349031694837	17
2	297	79.718872533142	18
2	307	82.157469879793	19
2	313	83.937143975259	20
2	323	85.148278394569	21
2	333	87.143536776046	22
2	343	90.748601209669	23
2	369	98.857114260327	24
2	379	100.041373464402	25
2	391	102.514004770146	26
2	425	114.852111469289	27
2	439	116.981883653455	28
2	449	118.5104370719	29
2	461	121.55695195362	30
2	485	128.046482615939	31
2	499	134.906074093842	32
2	519	142.107504020222	33
2	539	149.813882911748	34
2	545	151.437939690029	35
2	555	154.447717546958	36
2	571	158.888378629974	37
2	581	160.703091132441	38
2	607	170.051389030325	39
2	633	179.371162342276	40
2	647	183.937722120432	41
2	655	185.104150158568	42
2	665	186.771378488257	43
2	689	195.294638018052	44
3	7	0.254376010482	0
3	47	12.8530899929	1
3	65	16.80986763942	2
3	101	27.051379837606	3
3	133	37.682028580714	4
3	145	40.592391949531	5
3	173	49.432530045389	6
3	189	53.007562651473	7
3	199	54.493398256105	8
3	209	55.782722199606	9
3	219	56.919751116676	10
3	233	60.344792438112	11
3	247	62.693798517853	12
3	271	71.316988815797	13
3	285	76.366283682279	14
3	299	79.75103548235	15
3	315	83.957662934695	16
3	325	85.161347186326	17
3	335	87.167369446107	18
3	345	90.763796738361	19
3	371	98.868036625632	20
3	381	100.098111931665	21
3	393	102.55346222377	22
3	427	114.865147446135	23
3	441	117.017811304682	24
3	451	118.533797301057	25
3	463	121.629190927117	26
3	501	134.926078715459	27
3	557	154.464469365443	28
3	573	158.900839754138	29
3	583	160.745688939957	30
3	609	170.062572034695	31
3	649	183.961398778315	32
3	657	185.119802206043	33
3	691	195.320530097587	34
4	9	0.273478008816	0
4	49	12.868912287847	1
4	67	16.820231771157	2
4	103	27.064073562445	3
4	147	40.603056033571	4
4	175	49.454230401456	5
4	191	53.051883227241	6
4	201	54.50487080244	7
4	211	55.81366108209	8
4	221	56.929790402716	9
4	235	60.381629285924	10
4	249	62.704680082712	11
4	287	76.383011034326	12
4	317	83.971336201025	13
4	327	85.176835333684	14
4	347	90.804156120553	15
4	373	98.882782286102	16
4	383	100.121865414277	17
4	395	102.566145961538	18
4	429	114.877186511034	19
4	443	117.029801590749	20
4	453	118.561406193323	21
4	465	121.657262168399	22
4	559	154.487964751988	23
4	575	158.944487038706	24
4	585	160.760457671092	25
4	611	170.07693930272	26
4	659	185.150070285422	27
4	693	195.330537909582	28
5	104	27.074073562445	0
5	176	49.464230401456	1
5	288	76.393011034326	2
5	328	85.186835333684	3
5	348	90.814156120553	4
5	374	98.892782286102	5
5	384	100.131865414277	6
5	396	102.576145961538	7
5	444	117.039801590749	8
5	454	118.571406193323	9
5	660	185.160070285422	10
5	694	195.340537909582	11

