version 2
run General-2-20231004-18:44:46-10256
attr configname General
attr datetime 20231004-18:44:46
attr experiment General
attr inifile omnetpp.ini
attr iterationvars ""
attr iterationvarsf ""
attr measurement ""
attr network Multihop
attr processid 10256
attr repetition 2
attr replication #2
attr resultdir results
attr runnumber 2
attr seedset 2
param Multihop.node[*].transmissionTime "uniform(1s, 2s)"
param Multihop.node[*].delayTime "uniform(0.01s, 0.2s)"
param Multihop.node[*].processingTime exponential(0.01s)
param Multihop.node[0].lossProbability 0
param Multihop.node[1].lossProbability 0.2
param Multihop.node[2].lossProbability 0.6
param Multihop.node[3].lossProbability 0.3
param Multihop.node[4].lossProbability 0.1
param Multihop.node[5].lossProbability 0.5

vector 0 Multihop.node[0] txVector ETV
vector 1 Multihop.node[1] txVector ETV
vector 2 Multihop.node[2] txVector ETV
vector 3 Multihop.node[3] txVector ETV
vector 4 Multihop.node[4] txVector ETV
vector 5 Multihop.node[5] rxVector ETV
0	1	0.092839031499	0
0	3	1.277921112972	1
0	7	3.20946197656	2
0	11	4.694211072773	3
0	17	5.848637748296	4
0	27	7.333813663126	5
0	29	8.92061064208	6
0	39	10.64036487301	7
0	43	12.60999728066	8
0	47	13.897866100558	9
0	49	15.079593137857	10
0	53	16.573882905785	11
0	55	17.795718072932	12
0	59	19.563209249424	13
0	63	20.731032563858	14
0	67	22.19970614628	15
0	71	23.992795889285	16
0	75	25.605825583004	17
0	77	26.72531038222	18
0	87	27.873875162584	19
0	91	29.189172643722	20
0	101	30.998347928767	21
0	103	32.812486345666	22
0	111	34.76057676903	23
0	115	36.50720818203	24
0	125	38.395511928499	25
0	127	39.876533683641	26
0	131	41.836847413583	27
0	135	43.159721630644	28
0	139	45.092350191455	29
0	143	46.609780952586	30
0	147	48.163414798463	31
0	155	49.557348089777	32
0	159	50.913101713657	33
0	163	52.27512912035	34
0	167	53.638455011668	35
0	171	55.405943270326	36
0	175	57.232311276039	37
0	179	58.863153932169	38
0	183	60.244846870676	39
0	189	61.891861096509	40
0	199	63.121247060616	41
0	203	65.089537632904	42
0	213	66.566381039117	43
0	217	67.782187436494	44
0	221	69.580408025087	45
0	225	71.475553763817	46
0	235	73.453187154625	47
0	239	75.291017702567	48
0	245	76.61233628613	49
0	247	78.548584329449	50
0	249	80.012326937421	51
0	253	81.864615897667	52
0	257	82.864739481844	53
0	259	84.039855870903	54
0	261	85.554715038063	55
0	265	87.434705389217	56
0	269	88.964526565066	57
0	277	89.990910711252	58
0	283	91.496322346405	59
0	287	92.715612319318	60
0	295	94.43596034336	61
0	301	96.248742294983	62
0	303	97.264852560145	63
0	307	99.199888288063	64
0	309	101.110543804961	65
0	311	102.930009180466	66
0	313	104.020379558457	67
0	319	105.378619866231	68
0	323	106.40898811819	69
0	327	107.411570692686	70
0	337	108.99874489407	71
0	341	110.483798660356	72
0	345	112.237979612797	73
0	347	113.97333100696	74
0	357	115.158920743055	75
0	361	117.007382745873	76
0	371	118.687410000032	77
0	377	119.981153734047	78
0	379	121.146020876495	79
0	383	122.97347422691	80
0	387	124.327646649461	81
0	391	125.359451526794	82
0	395	126.987632745429	83
0	405	128.757369713643	84
0	407	130.537671584421	85
0	411	131.963646334148	86
0	421	133.502828945656	87
0	425	134.846668840869	88
0	429	136.26557615308	89
0	439	137.363124223677	90
0	443	138.437385031972	91
0	449	140.194389671571	92
0	451	141.4645674315	93
0	455	143.330747673306	94
0	465	145.086760680442	95
0	475	146.481974739366	96
0	485	147.495211773104	97
0	489	148.677898108278	98
0	495	150.017561379372	99
0	501	151.240663994587	100
0	505	152.4163086808	101
0	507	154.141938759498	102
0	511	155.532913021529	103
0	513	157.267598330062	104
0	515	159.241149646249	105
0	517	160.483487149254	106
0	523	161.69010590042	107
0	527	163.541778174248	108
0	529	164.905072820159	109
0	539	166.241365791085	110
0	541	168.124887479721	111
0	545	169.288226749534	112
0	555	170.506134070941	113
0	565	171.976829072247	114
0	573	173.018075023331	115
0	577	174.226116640279	116
0	579	175.279606814748	117
0	589	176.711739915442	118
0	593	177.911636096444	119
0	597	179.161205784436	120
0	601	180.292485007103	121
0	605	181.506727885939	122
0	607	182.980620792853	123
0	611	184.55506713504	124
0	615	185.688230166696	125
0	625	186.832650630521	126
0	629	188.063196243272	127
0	633	189.375584088518	128
0	641	191.335290083914	129
0	651	192.783703544662	130
0	655	194.529242359354	131
0	657	196.278207395944	132
0	661	197.784979234702	133
0	663	199.038226071066	134
1	5	1.317434556699	0
1	9	3.22332649325	1
1	13	4.716212962139	2
1	19	5.868654538853	3
1	31	8.93360141738	4
1	41	10.65388911805	5
1	45	12.621232449971	6
1	51	15.097934835026	7
1	57	17.814329189567	8
1	61	19.577789547354	9
1	65	20.751653424982	10
1	69	22.220584703629	11
1	73	24.04973808596	12
1	79	26.754434819044	13
1	89	27.886869108838	14
1	93	29.203537177556	15
1	105	32.839795885461	16
1	113	34.776224973089	17
1	117	36.545543177366	18
1	129	39.892085334932	19
1	133	41.861199318845	20
1	137	43.182142436365	21
1	141	45.123932580308	22
1	145	46.628305723375	23
1	149	48.199525859554	24
1	157	49.569742511861	25
1	161	50.944163700169	26
1	165	52.292124937067	27
1	169	53.673044544011	28
1	173	55.421249242333	29
1	177	57.246495436222	30
1	181	58.9059773016	31
1	185	60.286511049818	32
1	191	61.922997454522	33
1	201	63.139802628545	34
1	205	65.105004550973	35
1	215	66.592842635948	36
1	219	67.800273902903	37
1	223	69.616878502872	38
1	227	71.510529880611	39
1	237	73.470875644652	40
1	241	75.306080296421	41
1	251	80.024719252267	42
1	255	81.875590882316	43
1	263	85.580076537247	44
1	267	87.447905208906	45
1	271	88.994906384677	46
1	279	90.004991817259	47
1	285	91.524432848942	48
1	289	92.726140929704	49
1	297	94.453854120668	50
1	305	97.279805129287	51
1	315	104.030571235052	52
1	321	105.391771823752	53
1	325	106.424675242076	54
1	329	107.469834160782	55
1	339	109.022365284417	56
1	343	110.49770959713	57
1	349	113.98474769978	58
1	359	115.171706866842	59
1	363	117.028688102775	60
1	373	118.710750835328	61
1	381	121.163779597191	62
1	385	123.001925682787	63
1	389	124.338348033726	64
1	393	125.379528558488	65
1	397	127.003455758068	66
1	409	130.551919564561	67
1	413	131.979288842599	68
1	423	133.521403952961	69
1	427	134.857379496625	70
1	431	136.278141814215	71
1	441	137.377067194705	72
1	445	138.452647803271	73
1	453	141.51106377513	74
1	457	143.370202503422	75
1	467	145.105887313172	76
1	477	146.491990158601	77
1	487	147.518878190966	78
1	491	148.698427583744	79
1	497	150.041434458645	80
1	503	151.253607896227	81
1	509	154.156825870142	82
1	519	160.499010734992	83
1	525	161.704424867168	84
1	531	164.920284584109	85
1	543	168.147909326071	86
1	547	169.316242778341	87
1	557	170.52068934517	88
1	567	171.990112823523	89
1	575	173.028304809142	90
1	581	175.292995904338	91
1	591	176.733479527333	92
1	595	177.923179214385	93
1	599	179.200148174616	94
1	603	180.31386128541	95
1	609	182.996004700068	96
1	613	184.56908172005	97
1	617	185.716354495452	98
1	627	186.866287004321	99
1	631	188.079494900475	100
1	635	189.405827447399	101
1	643	191.346238334673	102
1	653	192.798249037851	103
1	659	196.293206322396	104
2	15	4.727490733868	0
2	21	5.895704489794	1
2	33	8.951502565674	2
2	81	26.771558646678	3
2	95	29.219845335206	4
2	107	32.857034818244	5
2	119	36.562535076376	6
2	151	48.209581458038	7
2	187	60.312779542421	8
2	193	61.941974508739	9
2	207	65.124141990064	10
2	229	71.520938217589	11
2	243	75.319329833735	12
2	273	89.008128262253	13
2	281	90.016755555251	14
2	291	92.745903256918	15
2	299	94.46403851061	16
2	317	104.046550090929	17
2	331	107.485552678686	18
2	351	113.994847919364	19
2	365	117.060388542284	20
2	375	118.727204676878	21
2	399	127.033008076548	22
2	415	132.004550524524	23
2	433	136.307876619045	24
2	447	138.476774198287	25
2	459	143.382227151602	26
2	469	145.117518227218	27
2	479	146.502411607261	28
2	493	148.718675160024	29
2	499	150.057487255956	30
2	521	160.521666905888	31
2	533	164.930906611053	32
2	549	169.327303893621	33
2	559	170.565939195952	34
2	569	172.011095569955	35
2	583	175.305692848806	36
2	619	185.731682083525	37
2	637	189.418296521102	38
2	645	191.363423206067	39
3	23	5.917193844911	0
3	35	8.966733366926	1
3	83	26.784008320354	2
3	97	29.233049774544	3
3	109	32.869532236884	4
3	121	36.584643105035	5
3	153	48.232619334274	6
3	195	61.967400353492	7
3	209	65.135268891334	8
3	231	71.544136637599	9
3	275	89.019697260971	10
3	293	92.759275751828	11
3	333	107.500053549669	12
3	353	114.009516661553	13
3	367	117.072055768927	14
3	401	127.04781528634	15
3	417	132.025556482078	16
3	435	136.321173611166	17
3	461	143.435892508498	18
3	471	145.12943519477	19
3	481	146.517956583123	20
3	535	164.942285963335	21
3	551	169.341852732916	22
3	561	170.583540293653	23
3	571	172.021282604125	24
3	585	175.328676720244	25
3	621	185.741984425843	26
3	639	189.440496891232	27
3	647	191.377381400278	28
4	25	5.934096581395	0
4	37	8.978681170879	1
4	85	26.844014613442	2
4	99	29.259054575526	3
4	123	36.606903312609	4
4	197	61.984996310141	5
4	211	65.149867167805	6
4	233	71.576806295823	7
4	335	107.530699263404	8
4	355	114.019625258315	9
4	369	117.111372855944	10
4	403	127.091276884006	11
4	419	132.047353150424	12
4	437	136.332511423339	13
4	463	143.44630510218	14
4	473	145.141044823543	15
4	483	146.561309808468	16
4	537	164.959594973684	17
4	553	169.36074671661	18
4	563	170.598695241025	19
4	587	175.340961077127	20
4	623	185.770984322216	21
4	649	191.407428106516	22
5	26	5.944096581395	0
5	100	29.269054575526	1
5	124	36.616903312609	2
5	198	61.994996310141	3
5	356	114.029625258315	4
5	370	117.121372855944	5
5	420	132.057353150424	6
5	438	136.342511423339	7
5	474	145.151044823543	8
5	484	146.571309808468	9
5	554	169.37074671661	10
5	564	170.608695241025	11
5	624	185.780984322216	12

