version 2
run General-0-20231004-18:44:46-10256
attr configname General
attr datetime 20231004-18:44:46
attr experiment General
attr inifile omnetpp.ini
attr iterationvars ""
attr iterationvarsf ""
attr measurement ""
attr network Multihop
attr processid 10256
attr repetition 0
attr replication #0
attr resultdir results
attr runnumber 0
attr seedset 0
param Multihop.node[*].transmissionTime "uniform(1s, 2s)"
param Multihop.node[*].delayTime "uniform(0.01s, 0.2s)"
param Multihop.node[*].processingTime exponential(0.01s)
param Multihop.node[0].lossProbability 0
param Multihop.node[1].lossProbability 0.2
param Multihop.node[2].lossProbability 0.6
param Multihop.node[3].lossProbability 0.3
param Multihop.node[4].lossProbability 0.1
param Multihop.node[5].lossProbability 0.5

vector 0 Multihop.node[0] txVector ETV
vector 1 Multihop.node[1] txVector ETV
vector 2 Multihop.node[2] txVector ETV
vector 3 Multihop.node[3] txVector ETV
vector 4 Multihop.node[4] txVector ETV
vector 5 Multihop.node[5] rxVector ETV
0	1	0.114274565438	0
0	11	1.707119181827	1
0	21	3.09150089005	2
0	25	4.903669616515	3
0	29	6.296454409678	4
0	31	7.633850571309	5
0	33	9.282022447866	6
0	43	10.650263985228	7
0	49	12.451174737727	8
0	53	14.171807389315	9
0	57	15.709180617546	10
0	61	16.815088223973	11
0	65	18.001420568516	12
0	69	19.217970925224	13
0	79	20.542111929347	14
0	83	21.992061918908	15
0	87	23.894410497117	16
0	93	25.864219565717	17
0	95	27.222371735917	18
0	99	28.973057874785	19
0	103	30.298105102339	20
0	107	31.932379155494	21
0	111	33.585169474436	22
0	115	35.580469040042	23
0	119	36.994837628054	24
0	121	38.618347734055	25
0	123	39.956355351564	26
0	127	41.631107673822	27
0	129	43.409453155547	28
0	135	45.359024206949	29
0	139	46.981870300211	30
0	143	48.953815299161	31
0	151	50.463439670932	32
0	155	51.905150592402	33
0	159	53.264595061383	34
0	163	54.95325624764	35
0	165	56.871491720509	36
0	169	58.088313853676	37
0	173	59.953416417661	38
0	175	61.87013937424	39
0	185	63.79129698624	40
0	189	65.438471124816	41
0	191	66.703201289132	42
0	195	68.10102204078	43
0	199	69.265962501365	44
0	203	70.412404264632	45
0	209	72.116141545429	46
0	213	73.872248236864	47
0	217	75.768286626163	48
0	221	77.659841056989	49
0	227	79.109038788901	50
0	231	80.876062491519	51
0	235	82.551501568716	52
0	245	83.864719900845	53
0	249	85.095252923977	54
0	253	86.714061484982	55
0	259	88.184193673388	56
0	263	89.567655899406	57
0	265	91.446108090535	58
0	269	92.548971450499	59
0	273	93.903018114933	60
0	283	94.936643208687	61
0	293	96.033903135297	62
0	303	97.133472220118	63
0	305	98.171031604598	64
0	309	99.679347054877	65
0	319	101.458398073057	66
0	323	103.440973029781	67
0	333	104.861048397452	68
0	339	106.625960095397	69
0	343	107.96536391143	70
0	345	109.304349027884	71
0	347	110.483839295882	72
0	351	111.654825888652	73
0	359	113.529398850709	74
0	361	115.313043098742	75
0	365	116.813069392539	76
0	375	118.512167470142	77
0	379	120.263011717083	78
0	383	121.817254153159	79
0	385	123.039697376624	80
0	395	124.258446744489	81
0	397	125.343742311545	82
0	401	126.400160646145	83
0	405	128.281165204788	84
0	407	129.89882312397	85
0	409	131.441321900892	86
0	411	133.295935483961	87
0	415	135.039770026304	88
0	425	136.71685160262	89
0	429	138.623269691444	90
0	433	139.852489014468	91
0	437	141.756913991724	92
0	447	143.081596964351	93
0	449	144.966934628631	94
0	455	146.646814083527	95
0	461	148.435553504932	96
0	465	149.74924590237	97
0	467	151.220997478194	98
0	471	152.932581299763	99
0	475	154.663023480294	100
0	479	155.877904216839	101
0	483	157.685484481823	102
0	487	159.360331826924	103
0	491	160.535240699152	104
0	495	161.998390895628	105
0	497	163.203256657195	106
0	501	164.36821552863	107
0	511	166.090296189381	108
0	515	167.839550606055	109
0	519	168.885165242092	110
0	523	170.172080287556	111
0	525	171.23511858013	112
0	535	172.790767817372	113
0	537	173.972399022975	114
0	547	175.484792488473	115
0	557	176.939961305665	116
0	561	178.648509454526	117
0	567	180.493059532329	118
0	571	182.467318200351	119
0	575	184.247744849495	120
0	585	186.001314454091	121
0	587	187.299156275888	122
0	591	188.700288617362	123
0	593	190.68098829089	124
0	603	192.087108778379	125
0	607	193.446380195518	126
0	611	194.748211069808	127
0	613	196.67442400249	128
0	615	197.999734311675	129
0	619	199.952604982847	130
1	3	0.142870607559	0
1	13	1.720650773218	1
1	23	3.108039715722	2
1	27	4.931753309158	3
1	35	9.323524147153	4
1	45	10.66761362944	5
1	51	12.469897949677	6
1	55	14.196021036116	7
1	59	15.725597564566	8
1	63	16.838441125819	9
1	67	18.012873348789	10
1	71	19.229592290118	11
1	81	20.561606875182	12
1	85	22.003107531166	13
1	89	23.914998838432	14
1	97	27.241732351515	15
1	101	28.983449706349	16
1	105	30.34003456876	17
1	109	31.952459347948	18
1	113	33.603888632972	19
1	117	35.596906850058	20
1	125	39.970170909998	21
1	131	43.430315849356	22
1	137	45.380222350607	23
1	141	47.012923513219	24
1	145	48.964388568425	25
1	153	50.51235537216	26
1	157	51.921707055246	27
1	161	53.295837433353	28
1	167	56.88982015567	29
1	171	58.105426333048	30
1	177	61.881007079063	31
1	187	63.819709810955	32
1	193	66.72124926313	33
1	197	68.11563934974	34
1	201	69.284393331686	35
1	205	70.425807732014	36
1	211	72.131184983495	37
1	215	73.892434824164	38
1	219	75.789682705798	39
1	223	77.708271122821	40
1	229	79.124346013867	41
1	233	80.88893659628	42
1	237	82.595145273247	43
1	247	83.879743008828	44
1	251	85.11169397106	45
1	255	86.736651920155	46
1	261	88.208023465453	47
1	267	91.457077318081	48
1	271	92.566996970357	49
1	275	93.947743469726	50
1	285	94.988021306292	51
1	295	96.048246591856	52
1	307	98.182856990617	53
1	311	99.709366919832	54
1	321	101.473070798721	55
1	325	103.451492155303	56
1	335	104.899894514973	57
1	341	106.642684700565	58
1	349	110.500065269322	59
1	353	111.693671331536	60
1	363	115.3235599278	61
1	367	116.871860721419	62
1	377	118.555546813481	63
1	381	120.275399245811	64
1	387	123.058127164378	65
1	399	125.360433448782	66
1	403	126.447627592283	67
1	413	133.31244779128	68
1	417	135.05911062963	69
1	427	136.728327562949	70
1	431	138.654605324319	71
1	435	139.872867515223	72
1	439	141.774247668456	73
1	451	144.983025074758	74
1	457	146.659420484821	75
1	463	148.477124460346	76
1	469	151.232666224606	77
1	473	152.952973356129	78
1	477	154.67508706023	79
1	481	155.901651016377	80
1	485	157.698726472958	81
1	489	159.382521820376	82
1	493	160.563593333181	83
1	499	163.214590063428	84
1	503	164.378524791546	85
1	513	166.113452451964	86
1	517	167.851897164548	87
1	521	168.906474426884	88
1	527	171.245211410374	89
1	539	173.99108468029	90
1	549	175.515901376217	91
1	559	176.956855651043	92
1	563	178.660670416692	93
1	569	180.522887021375	94
1	573	182.519336794613	95
1	577	184.257785412708	96
1	589	187.310442078261	97
1	595	190.699409653918	98
1	605	192.102208686717	99
1	609	193.47130651716	100
1	617	198.009874777587	101
1	621	199.966237405036	102
2	5	0.172386060918	0
2	15	1.731234619909	1
2	37	9.33503645569	2
2	47	10.688973018857	3
2	73	19.242106709439	4
2	91	23.926873099092	5
2	133	43.44045249514	6
2	147	48.980388037291	7
2	179	61.894260483218	8
2	207	70.441486773549	9
2	225	77.719506389295	10
2	239	82.614023887351	11
2	257	86.750048567481	12
2	277	93.961614770647	13
2	287	95.001036965424	14
2	297	96.064581218033	15
2	313	99.724666948613	16
2	327	103.466041273751	17
2	337	104.923757428493	18
2	355	111.713042718713	19
2	369	116.884970399469	20
2	389	123.074143954243	21
2	419	135.081652662331	22
2	441	141.784248221975	23
2	453	144.999630105555	24
2	459	146.69064795136	25
2	505	164.40226822169	26
2	529	171.273111306419	27
2	541	174.016574797082	28
2	551	175.532679396238	29
2	565	178.685512841519	30
2	579	184.270925391689	31
2	597	190.713619586898	32
3	7	0.20117570146	0
3	17	1.744418181317	1
3	39	9.365445377849	2
3	75	19.256992279932	3
3	149	48.990589938572	4
3	181	61.904354490725	5
3	241	82.634802236192	6
3	279	93.974115585597	7
3	289	95.018737734019	8
3	299	96.092978545884	9
3	315	99.736174858715	10
3	329	103.476208951411	11
3	357	111.732122358986	12
3	371	116.906336364422	13
3	391	123.119288741048	14
3	421	135.097991962525	15
3	443	141.797985854913	16
3	507	164.413239898474	17
3	531	171.324671017375	18
3	543	174.035900915635	19
3	553	175.555251766194	20
3	581	184.286210063972	21
3	599	190.739172530502	22
4	9	0.220945765724	0
4	19	1.7609126448	1
4	41	9.381862469576	2
4	77	19.290281413674	3
4	183	61.932827767235	4
4	243	82.652420913905	5
4	281	93.98563852185	6
4	291	95.034678469002	7
4	301	96.126480318782	8
4	317	99.746512726571	9
4	331	103.488832244503	10
4	373	116.936308084097	11
4	393	123.140700120077	12
4	423	135.114080291662	13
4	445	141.813527563203	14
4	509	164.4256918794	15
4	533	171.346827922109	16
4	545	174.048365073857	17
4	555	175.57191019106	18
4	583	184.301800140672	19
4	601	190.754472146295	20
5	10	0.230945765724	0
5	20	1.7709126448	1
5	42	9.391862469576	2
5	78	19.300281413674	3
5	244	82.662420913905	4
5	302	96.136480318782	5
5	374	116.946308084097	6
5	424	135.124080291662	7
5	446	141.823527563203	8
5	534	171.356827922109	9
5	546	174.058365073857	10
5	556	175.58191019106	11
5	584	184.311800140672	12
5	602	190.764472146295	13

