version 2
run General-3-20231004-18:44:46-10256
attr configname General
attr datetime 20231004-18:44:46
attr experiment General
attr inifile omnetpp.ini
attr iterationvars ""
attr iterationvarsf ""
attr measurement ""
attr network Multihop
attr processid 10256
attr repetition 3
attr replication #3
attr resultdir results
attr runnumber 3
attr seedset 3
param Multihop.node[*].transmissionTime "uniform(1s, 2s)"
param Multihop.node[*].delayTime "uniform(0.01s, 0.2s)"
param Multihop.node[*].processingTime exponential(0.01s)
param Multihop.node[0].lossProbability 0
param Multihop.node[1].lossProbability 0.2
param Multihop.node[2].lossProbability 0.6
param Multihop.node[3].lossProbability 0.3
param Multihop.node[4].lossProbability 0.1
param Multihop.node[5].lossProbability 0.5

vector 0 Multihop.node[0] txVector ETV
vector 1 Multihop.node[1] txVector ETV
vector 2 Multihop.node[2] txVector ETV
vector 3 Multihop.node[3] txVector ETV
vector 4 Multihop.node[4] txVector ETV
vector 5 Multihop.node[5] rxVector ETV
0	1	0.114651601831	0
0	5	1.185376482154	1
0	15	2.306705061416	2
0	17	3.554593363148	3
0	21	4.648144858726	4
0	27	5.79351500615	5
0	31	7.147420079051	6
0	33	9.060721531813	7
0	37	10.826547906338	8
0	41	12.228908548667	9
0	45	13.535269175726	10
0	47	14.81018928329	11
0	57	16.264797048247	12
0	67	17.983219073456	13
0	71	19.382210029591	14
0	75	20.795928713236	15
0	79	22.509494460955	16
0	83	23.825261709349	17
0	87	25.573419146076	18
0	97	26.776773674948	19
0	101	28.150898403091	20
0	105	29.911476893419	21
0	107	31.752518053235	22
0	111	33.445151800358	23
0	121	34.807492259027	24
0	125	36.651279354304	25
0	129	38.191398955718	26
0	133	39.713003292516	27
0	139	41.015266906073	28
0	149	42.036492646275	29
0	151	43.243458781926	30
0	153	45.169191566365	31
0	155	46.446514615392	32
0	157	47.622576730627	33
0	159	49.612877919174	34
0	161	51.305528535576	35
0	165	53.057668565608	36
0	175	54.14366928099	37
0	185	55.568399231716	38
0	195	56.918324453591	39
0	199	58.800232901306	40
0	201	60.628255018334	41
0	211	61.861947027569	42
0	213	63.331328339943	43
0	223	64.833858556182	44
0	227	66.337113846394	45
0	229	67.679533433237	46
0	235	69.289179147988	47
0	239	71.289154611829	48
0	249	72.546360989868	49
0	257	73.692677212249	50
0	259	75.184492760406	51
0	261	76.314151144422	52
0	265	78.17420460733	53
0	269	79.998536001727	54
0	279	81.989831722643	55
0	283	83.686581710422	56
0	287	85.503617071382	57
0	297	86.58518811392	58
0	299	87.991087097976	59
0	303	89.529550789691	60
0	307	90.839512424379	61
0	317	92.336177378961	62
0	327	93.495824537308	63
0	335	95.209429081365	64
0	345	97.137927927844	65
0	349	98.369388958508	66
0	351	100.012463937349	67
0	355	101.794847916414	68
0	359	103.175776787636	69
0	369	104.281435992171	70
0	373	105.691527326892	71
0	375	106.713623141239	72
0	379	107.935999460819	73
0	383	109.718756991274	74
0	387	111.195688755553	75
0	391	112.564169020694	76
0	395	114.366996990819	77
0	399	115.728080765879	78
0	401	117.034208062174	79
0	403	118.317897511948	80
0	407	119.53079184757	81
0	409	120.656612887349	82
0	413	122.649536444409	83
0	423	124.266241731191	84
0	429	126.0548308674	85
0	433	127.179452617488	86
0	437	128.411551006905	87
0	439	129.686188476461	88
0	443	131.628102839992	89
0	453	132.703891044783	90
0	455	134.319080500931	91
0	459	135.499820829902	92
0	463	136.865302502012	93
0	469	138.658625180202	94
0	475	140.296678061664	95
0	477	141.828141192041	96
0	481	143.006680026019	97
0	485	144.03170530854	98
0	489	145.357969313927	99
0	495	146.458547026685	100
0	505	147.528916786027	101
0	509	149.373363765723	102
0	513	151.367883792448	103
0	517	153.21215942439	104
0	527	155.068777582909	105
0	531	156.703550801913	106
0	541	157.894834093119	107
0	545	159.718067650751	108
0	547	160.905018646105	109
0	551	162.579349021262	110
0	555	164.295264720751	111
0	559	165.383842576828	112
0	569	167.298223015687	113
0	579	169.041326585293	114
0	581	170.581198729642	115
0	585	172.444450338671	116
0	589	174.341513946487	117
0	591	176.183755173881	118
0	595	177.816715707139	119
0	603	178.860221800695	120
0	607	180.843026571276	121
0	611	182.414162197683	122
0	621	183.735626900403	123
0	623	185.185465825556	124
0	627	186.597896891946	125
0	629	187.651903878033	126
0	631	189.374346080536	127
0	635	191.002371565739	128
0	639	192.166971113833	129
0	643	193.424013710881	130
0	647	195.380036867058	131
0	651	197.005545260685	132
0	655	198.902706106494	133
1	3	0.14297423212	0
1	7	1.203800179986	1
1	19	3.57646201811	2
1	23	4.664181073888	3
1	29	5.810300270438	4
1	35	9.107083745729	5
1	39	10.84459477266	6
1	43	12.247742428112	7
1	49	14.834363635549	8
1	59	16.275005347716	9
1	69	17.998747737791	10
1	73	19.407681165209	11
1	77	20.806162602941	12
1	81	22.527767422224	13
1	85	23.844668149761	14
1	89	25.594021647799	15
1	99	26.787555453988	16
1	103	28.161557342035	17
1	109	31.768422162219	18
1	113	33.462410459218	19
1	123	34.824211817258	20
1	127	36.678773717425	21
1	131	38.202937455343	22
1	135	39.739455118353	23
1	141	41.031853316372	24
1	163	51.316763968157	25
1	167	53.078623475486	26
1	177	54.17080509095	27
1	187	55.593215779212	28
1	197	56.93620744489	29
1	203	60.640522489299	30
1	215	63.343220144993	31
1	225	64.852350430424	32
1	231	67.690818784955	33
1	237	69.302298181932	34
1	241	71.302393115766	35
1	251	72.610272281234	36
1	263	76.32661523936	37
1	267	78.247877099597	38
1	271	80.010251832998	39
1	281	82.013631177012	40
1	285	83.715402182221	41
1	289	85.517294195258	42
1	301	88.011573134036	43
1	305	89.557961575043	44
1	309	90.861677592576	45
1	319	92.363299955749	46
1	329	93.508548351873	47
1	337	95.223940135153	48
1	347	97.153790384593	49
1	353	100.038251194887	50
1	357	101.810089000897	51
1	361	103.19155717951	52
1	371	104.292934650223	53
1	377	106.72803529249	54
1	381	107.951966949354	55
1	385	109.736019600711	56
1	389	111.208732662397	57
1	393	112.597272250737	58
1	397	114.398544218128	59
1	405	118.333349379513	60
1	411	120.672296274672	61
1	415	122.698205628698	62
1	425	124.285850799667	63
1	431	126.06514504341	64
1	435	127.189580992899	65
1	441	129.699428727534	66
1	445	131.64130974458	67
1	457	134.342699617871	68
1	461	135.524815999558	69
1	465	136.885362016428	70
1	471	138.679271171052	71
1	479	141.852800356909	72
1	483	143.017361421417	73
1	487	144.050474328403	74
1	491	145.374939326776	75
1	497	146.486804538094	76
1	507	147.548522991049	77
1	511	149.387431169507	78
1	515	151.383097219549	79
1	519	153.238071771182	80
1	529	155.082937776118	81
1	533	156.721906702983	82
1	543	157.905067014541	83
1	549	160.938917304285	84
1	553	162.604910090393	85
1	557	164.310912580986	86
1	561	165.408288349427	87
1	571	167.313639693037	88
1	583	170.600175234142	89
1	587	172.462398329308	90
1	593	176.209418515055	91
1	597	177.829897579737	92
1	605	178.879816803296	93
1	609	180.865403822277	94
1	613	182.429533880167	95
1	625	185.229496882175	96
1	633	189.389598535527	97
1	637	191.016894390586	98
1	641	192.18631932075	99
1	645	193.455421276993	100
1	649	195.401137627745	101
1	653	197.026994967176	102
1	657	198.926561870566	103
2	9	1.219546036734	0
2	25	4.676609142679	1
2	51	14.861377562829	2
2	61	16.286545223492	3
2	91	25.614889066002	4
2	115	33.478523038088	5
2	137	39.753304319963	6
2	143	41.042117025807	7
2	169	53.092621855555	8
2	179	54.189274714164	9
2	189	55.62589729298	10
2	205	60.682303723697	11
2	217	63.356764161061	12
2	233	67.701215741431	13
2	243	71.315293183632	14
2	253	72.624668640989	15
2	273	80.026613189309	16
2	291	85.535526441101	17
2	311	90.883037091224	18
2	321	92.376902458907	19
2	331	93.530510569896	20
2	339	95.250037381045	21
2	363	103.220814476089	22
2	417	122.711677890426	23
2	427	124.30480406993	24
2	447	131.694015563696	25
2	467	136.90965993005	26
2	473	138.689275960354	27
2	493	145.401083642071	28
2	499	146.508525280519	29
2	521	153.249189375128	30
2	535	156.732180742549	31
2	563	165.420590528985	32
2	573	167.360505950344	33
2	599	177.849808858135	34
2	615	182.447999165886	35
2	659	198.939303920332	36
3	11	1.229735296555	0
3	53	14.874356035688	1
3	63	16.30048018636	2
3	93	25.64537408163	3
3	117	33.505044521278	4
3	145	41.059160604828	5
3	171	53.107110550796	6
3	181	54.220570342248	7
3	191	55.651302492348	8
3	207	60.706834595502	9
3	219	63.369894943879	10
3	245	71.348095260019	11
3	255	72.642590159347	12
3	275	80.048903754051	13
3	293	85.570766294701	14
3	313	90.902802903808	15
3	323	92.388022078422	16
3	333	93.540769163522	17
3	341	95.272751186066	18
3	365	103.265691565868	19
3	419	122.727734965362	20
3	449	131.709508186711	21
3	501	146.519850971463	22
3	523	153.271755345655	23
3	537	156.742725040634	24
3	565	165.433227371336	25
3	575	167.406656824507	26
3	601	177.868894678641	27
3	617	182.459971493052	28
4	13	1.240150088842	0
4	55	14.906711386691	1
4	65	16.327031298728	2
4	95	25.672046222135	3
4	119	33.518846655605	4
4	147	41.094174627085	5
4	173	53.124578372405	6
4	183	54.246694942533	7
4	193	55.664634969964	8
4	209	60.71892023463	9
4	221	63.401689607267	10
4	247	71.376128297136	11
4	277	80.063058998266	12
4	295	85.581763186912	13
4	315	90.974052405495	14
4	325	92.401395061997	15
4	343	95.291976551305	16
4	367	103.28842662529	17
4	421	122.74281221823	18
4	451	131.732607430484	19
4	503	146.537477979305	20
4	525	153.299467272087	21
4	539	156.769667879647	22
4	567	165.465900418291	23
4	577	167.4172405351	24
4	619	182.48198633428	25
5	66	16.337031298728	0
5	148	41.104174627085	1
5	184	54.256694942533	2
5	210	60.72892023463	3
5	296	85.591763186912	4
5	368	103.29842662529	5
5	504	146.547477979305	6
5	568	165.475900418291	7
5	578	167.4272405351	8
5	620	182.49198633428	9

