version 2
run General-1-20230921-23:12:30-8487
attr configname General
attr datetime 20230921-23:12:30
attr experiment General
attr inifile omnetpp.ini
attr iterationvars ""
attr iterationvarsf ""
attr measurement ""
attr network Network1
attr processid 8487
attr repetition 1
attr replication #1
attr resultdir results
attr runnumber 1
attr seedset 1
param Network1.node[*].transmissionTime "uniform(1s, 2s)"
param Network1.node[*].delayTime "uniform(0.01s, 0.2s)"
param Network1.node[*].processingTime exponential(0.01s)
param Network1.node[*].lossProbability 0.2

vector 0 Network1.node[0] txVector ETV
vector 1 Network1.node[1] txVector ETV
vector 2 Network1.node[2] txVector ETV
vector 3 Network1.node[4] txVector ETV
vector 4 Network1.node[5] rxVector ETV
vector 5 Network1.node[3] txVector ETV
0	1	0.089234179703	0
0	5	2.086418987836	1
0	9	3.388751555586	2
0	11	4.785332281727	3
0	19	6.173243021944	4
0	23	7.377695270933	5
0	29	8.912109178144	6
0	31	10.851236973077	7
0	39	12.62962620857	8
0	43	14.524232872415	9
0	45	15.79728284979	10
0	53	16.856526046877	11
0	65	18.548403159601	12
0	69	19.994537660272	13
0	75	21.442431184814	14
0	85	22.572459753954	15
0	93	24.146577360693	16
0	101	26.096515494285	17
0	109	27.611404601836	18
0	121	29.503540470383	19
0	129	31.127212676571	20
0	135	33.008554505536	21
0	149	34.79550597945	22
0	159	36.374139911381	23
0	163	38.205832500828	24
0	173	39.378173011474	25
0	175	41.301197552241	26
0	179	43.012722309099	27
0	181	44.409035597348	28
0	183	45.516400905677	29
0	191	47.026211183869	30
0	199	48.150384500974	31
0	209	49.963379472613	32
0	211	51.391761882117	33
0	213	52.753666331645	34
0	215	53.907004815645	35
0	217	55.844195141576	36
0	219	57.760605014747	37
0	223	59.542563477417	38
0	227	61.102280456692	39
0	235	62.396639928574	40
0	243	63.592069408743	41
0	249	64.796427532917	42
0	251	66.447548098283	43
0	259	67.487231600218	44
0	261	69.066976823964	45
0	269	70.447117999782	46
0	273	72.211359612298	47
0	275	73.421533624529	48
0	277	75.17428918288	49
0	285	76.240825665304	50
0	293	78.080470876656	51
0	295	79.988286735145	52
0	303	81.920258802482	53
0	307	83.845458910455	54
0	313	85.487025117156	55
0	321	87.036573036461	56
0	323	88.391150270243	57
0	325	89.469670239723	58
0	333	91.162855437844	59
0	335	92.339051698222	60
0	345	93.671115270936	61
0	347	95.51584971615	62
0	355	97.421242028129	63
0	365	99.371285335281	64
0	369	101.186385392564	65
0	373	102.974314626659	66
0	379	103.990187606428	67
0	387	105.857705061211	68
0	401	107.432416569096	69
0	407	109.103205360127	70
0	413	110.504684945689	71
0	417	112.478487026998	72
0	425	113.752387351942	73
0	435	115.415107166747	74
0	437	117.148249698224	75
0	445	118.667261327038	76
0	451	120.440111757841	77
0	455	121.721328649323	78
0	459	123.409741897255	79
0	467	124.932028465325	80
0	475	126.848334017096	81
0	483	128.181618322505	82
0	487	129.798303391438	83
0	495	131.688820509825	84
0	501	133.342957857184	85
0	505	134.862309677413	86
0	509	136.172637515588	87
0	519	138.01734712499	88
0	531	139.668651457995	89
0	539	140.895113071779	90
0	543	142.885584852778	91
0	551	144.245145156867	92
0	555	145.791215962618	93
0	563	147.249366840934	94
0	575	148.615909938123	95
0	585	149.891755837835	96
0	593	151.616735958848	97
0	603	152.997752083586	98
0	605	154.707139336392	99
0	615	156.172140818676	100
0	617	157.80592758337	101
0	629	159.608890820183	102
0	631	161.344244515179	103
0	633	162.947739162604	104
0	635	164.627758308901	105
0	653	166.211718097218	106
0	655	168.206082892959	107
0	661	169.859772648551	108
0	669	171.468585737404	109
0	673	173.383860055479	110
0	675	174.999164287356	111
0	683	176.836968155002	112
0	695	178.746261356056	113
0	705	180.331840014907	114
0	711	182.252857876599	115
0	723	183.558429490665	116
0	731	185.011282990344	117
0	739	186.830887647934	118
0	747	188.762748761225	119
0	751	190.169451634988	120
0	757	191.344217511017	121
0	765	192.529347907409	122
0	769	193.804818094831	123
0	773	195.302068183787	124
0	777	196.885506714817	125
0	785	198.702341827221	126
0	787	200.413437146583	127
0	789	201.606897717697	128
0	795	202.675328777993	129
0	799	204.630538949866	130
0	801	206.45477679128	131
0	809	208.087392610155	132
0	815	209.296725046245	133
0	817	210.616696483811	134
0	825	211.728596242267	135
0	827	213.252492377657	136
0	831	215.007383837487	137
0	839	216.147015092318	138
0	847	217.169930217444	139
0	851	218.923540700349	140
0	861	220.567901782581	141
0	871	222.146401364246	142
0	879	223.893722176674	143
0	887	224.929811867309	144
0	889	226.151208566857	145
0	893	227.365320706862	146
0	897	228.858588974114	147
0	903	229.969509342342	148
0	913	231.201211651677	149
0	919	232.636517609592	150
0	923	233.762727713568	151
0	929	235.169858354965	152
0	933	236.498677615199	153
0	941	238.142573258031	154
0	945	239.449123880716	155
1	3	0.126198958082	0
1	7	2.098006083808	1
1	13	4.806411215185	2
1	21	6.204289994907	3
1	25	7.412224935735	4
1	33	10.873823745189	5
1	41	12.640515003856	6
1	47	15.818385490099	7
1	55	16.870316941621	8
1	67	18.560915048156	9
1	71	20.028462266437	10
1	77	21.452626754365	11
1	87	22.584046529738	12
1	95	24.16337097893	13
1	103	26.135446305074	14
1	111	27.626146073377	15
1	123	29.527441182717	16
1	131	31.137330054708	17
1	137	33.019216622892	18
1	151	34.805596467578	19
1	161	36.392154474854	20
1	165	38.217307479831	21
1	177	41.312524537777	22
1	185	45.527478263826	23
1	193	47.039484893192	24
1	201	48.163806024377	25
1	221	57.780184711901	26
1	225	59.552689832161	27
1	229	61.116756066373	28
1	237	62.415347342175	29
1	245	63.642108947016	30
1	253	66.47436153933	31
1	263	69.084982994679	32
1	271	70.459509886858	33
1	279	75.187304492851	34
1	287	76.26058851762	35
1	297	79.998427233229	36
1	305	81.932534213517	37
1	309	83.860402000199	38
1	315	85.523086566276	39
1	327	89.47979818136	40
1	337	92.350455783442	41
1	349	95.532009360444	42
1	357	97.435005133223	43
1	367	99.389135706653	44
1	371	101.205853695621	45
1	375	102.984824518119	46
1	381	104.015612983108	47
1	389	105.877595724115	48
1	403	107.448410841467	49
1	409	109.11702358744	50
1	415	110.526010801345	51
1	419	112.488587527603	52
1	427	113.765537312745	53
1	439	117.172984963029	54
1	447	118.689492276528	55
1	453	120.470143204777	56
1	457	121.739756599057	57
1	461	123.443163399234	58
1	469	124.966067506095	59
1	477	126.858423543451	60
1	485	128.194279696033	61
1	489	129.823927671513	62
1	497	131.700381734005	63
1	503	133.368342808023	64
1	507	134.877300958279	65
1	511	136.190368960658	66
1	521	138.039504778581	67
1	533	139.689809079891	68
1	541	140.908683369526	69
1	545	142.903659937003	70
1	553	144.262619626349	71
1	557	145.823046935772	72
1	565	147.279196979192	73
1	577	148.628463900288	74
1	587	149.905363690502	75
1	595	151.640593236529	76
1	607	154.746618084952	77
1	619	157.827861225972	78
1	637	164.646280229919	79
1	657	168.216464356439	80
1	663	169.870895507239	81
1	671	171.480158806674	82
1	677	175.021071740567	83
1	685	176.852090984011	84
1	697	178.759568404112	85
1	707	180.342298743327	86
1	713	182.269480595365	87
1	725	183.578326415919	88
1	733	185.039536433205	89
1	741	186.868512983051	90
1	749	188.777155696612	91
1	753	190.188793488066	92
1	759	191.366319986549	93
1	767	192.53987813145	94
1	771	193.822137307318	95
1	775	195.338396287622	96
1	779	196.904529918284	97
1	791	201.638071726963	98
1	797	202.690703761918	99
1	803	206.475825090181	100
1	811	208.106194180281	101
1	819	210.630450906771	102
1	829	213.268725935808	103
1	833	215.017566199795	104
1	841	216.164335683918	105
1	849	217.188552371484	106
1	853	218.933593236493	107
1	863	220.581105485169	108
1	873	222.15982067377	109
1	881	223.922275976149	110
1	891	226.163426860086	111
1	895	227.388561153612	112
1	899	228.879814869466	113
1	905	229.981836555805	114
1	915	231.236910575723	115
1	921	232.683832787005	116
1	925	233.800054415589	117
1	931	235.184075293662	118
1	935	236.522714297178	119
1	943	238.178921295273	120
1	947	239.488184340283	121
2	15	4.824150812888	0
2	49	15.83385187702	1
2	59	16.905794598988	2
2	81	21.500585496395	3
2	89	22.597070818903	4
2	113	27.637953551661	5
2	117	27.676331626205	6
2	125	29.551847972572	7
2	133	31.157050619041	8
2	139	33.037853359208	9
2	143	33.086000190132	10
2	155	34.844481144581	11
2	169	38.240121658703	12
2	197	47.076159391258	13
2	205	48.205829249078	14
2	231	61.129028752363	15
2	265	69.119805341238	16
2	281	75.19885073585	17
2	289	76.271270889428	18
2	299	80.021467278907	19
2	317	85.537681189781	20
2	341	92.406251618205	21
2	351	95.54626025218	22
2	361	97.466865894399	23
2	377	103.019908536621	24
2	391	105.899631587248	25
2	395	105.93386691492	26
2	405	107.461158073921	27
2	411	109.13526660621	28
2	421	112.514564538543	29
2	431	113.796588656302	30
2	441	117.18367880734	31
2	463	123.455712837274	32
2	491	129.835584341477	33
2	513	136.210167404175	34
2	517	136.251555819902	35
2	525	138.065070491868	36
2	537	139.735286334379	37
2	559	145.834795175298	38
2	569	147.307827848851	39
2	579	148.652333742741	40
2	591	149.926571545122	41
2	599	151.716034249176	42
2	609	154.763664742016	43
2	623	157.879867533393	44
2	627	157.926740571419	45
2	641	164.709946162172	46
2	645	164.783940628719	47
2	649	164.811344949037	48
2	659	168.236101156391	49
2	665	169.911094483333	50
2	687	176.872281390983	51
2	691	176.91430886993	52
2	701	178.78963382212	53
2	709	180.380248964619	54
2	715	182.279757259719	55
2	719	182.323031903867	56
2	735	185.055095967018	57
2	743	186.883274759836	58
2	755	190.229395343603	59
2	781	196.918157004033	60
2	793	201.685101523485	61
2	805	206.489808289509	62
2	821	210.682045150575	63
2	843	216.180327861645	64
2	855	218.947680610405	65
2	865	220.607484441484	66
2	901	228.90152913065	67
2	909	230.020549314726	68
2	937	236.554036688264	69
2	951	239.534721781842	70
3	17	4.837909004815	0
3	37	10.904885408464	1
3	51	15.849158553481	2
3	63	16.949366895415	3
3	83	21.519365554898	4
3	91	22.608150395873	5
3	99	24.184347482177	6
3	107	26.178391756346	7
3	119	27.687681978642	8
3	127	29.584470681522	9
3	147	33.119187381538	10
3	157	34.854640621907	11
3	171	38.257219456845	12
3	189	45.589535127619	13
3	207	48.229577716024	14
3	241	62.438602831029	15
3	257	66.510363726996	16
3	267	69.132883094651	17
3	283	75.219052284019	18
3	291	76.28866775734	19
3	301	80.061229776121	20
3	319	85.580720771572	21
3	331	89.533425007473	22
3	343	92.438912245361	23
3	353	95.559625038506	24
3	363	97.480652833259	25
3	385	104.073743517486	26
3	399	105.965888835577	27
3	423	112.551878576044	28
3	443	117.197874786029	29
3	473	124.990679102399	30
3	481	126.881844744518	31
3	529	138.122998925966	32
3	549	142.962715144847	33
3	561	145.869744538739	34
3	573	147.381742963282	35
3	583	148.681674378346	36
3	601	151.729015653461	37
3	613	154.788997400614	38
3	651	164.826493160254	39
3	667	169.943182362457	40
3	681	175.100756252782	41
3	693	176.927378164172	42
3	703	178.823799519668	43
3	721	182.340272435971	44
3	729	183.610980718941	45
3	737	185.094850757812	46
3	745	186.895861175658	47
3	763	191.411754385115	48
3	807	206.504162473388	49
3	823	210.698261234374	50
3	837	215.053163081009	51
3	845	216.201489613086	52
3	859	218.991550466055	53
3	869	220.631938021869	54
3	877	222.199344790893	55
3	885	223.94655858417	56
3	911	230.036970758976	57
3	939	236.577856858209	58
3	955	239.573576551087	59
4	18	4.847909004815	0
4	38	10.914885408464	1
4	64	16.959366895415	2
4	84	21.529365554898	3
4	92	22.618150395873	4
4	120	27.697681978642	5
4	128	29.594470681522	6
4	148	33.129187381538	7
4	158	34.864640621907	8
4	172	38.267219456845	9
4	190	45.599535127619	10
4	208	48.239577716024	11
4	242	62.448602831029	12
4	284	75.229052284019	13
4	292	76.29866775734	14
4	302	80.071229776121	15
4	332	89.543425007473	16
4	344	92.448912245361	17
4	354	95.569625038506	18
4	364	97.490652833259	19
4	386	104.083743517486	20
4	400	105.975888835577	21
4	424	112.561878576044	22
4	474	125.000679102399	23
4	530	138.132998925966	24
4	550	142.972715144847	25
4	562	145.879744538739	26
4	574	147.391742963282	27
4	584	148.691674378346	28
4	602	151.739015653461	29
4	614	154.798997400614	30
4	652	164.836493160254	31
4	668	169.953182362457	32
4	682	175.110756252782	33
4	694	176.937378164172	34
4	704	178.833799519668	35
4	722	182.350272435971	36
4	730	183.620980718941	37
4	808	206.514162473388	38
4	824	210.708261234374	39
4	838	215.063163081009	40
4	846	216.211489613086	41
4	860	219.001550466055	42
4	870	220.641938021869	43
4	878	222.209344790893	44
4	912	230.046970758976	45
4	940	236.587856858209	46
4	956	239.583576551087	47
5	27	7.430405008849	0
5	35	10.887584131413	1
5	57	16.895610023208	2
5	61	16.925577057804	3
5	73	20.061830944436	4
5	79	21.487499208312	5
5	97	24.173883421979	6
5	105	26.166912848343	7
5	115	27.652436145615	8
5	141	33.052630544981	9
5	145	33.099586394205	10
5	153	34.820016769347	11
5	167	38.229438868437	12
5	187	45.545218172348	13
5	195	47.057926144198	14
5	203	48.190262127089	15
5	233	61.140679116346	16
5	239	62.425860465484	17
5	247	63.653814355972	18
5	255	66.49277456489	19
5	311	83.872228635462	20
5	329	89.519357569913	21
5	339	92.368099580526	22
5	359	97.454006389342	23
5	383	104.062026662325	24
5	393	105.92349540146	25
5	397	105.955842093377	26
5	429	113.779086937198	27
5	433	113.808635730545	28
5	449	118.740130691981	29
5	465	123.48396265447	30
5	471	124.978535248074	31
5	479	126.871274179277	32
5	493	129.856992445863	33
5	499	131.711944669323	34
5	515	136.237677821798	35
5	523	138.054718662402	36
5	527	138.109991949984	37
5	535	139.715734331184	38
5	547	142.950445413051	39
5	567	147.295737454067	40
5	571	147.325936520618	41
5	581	148.664571114531	42
5	589	149.915643632721	43
5	597	151.673985920968	44
5	611	154.774514592347	45
5	621	157.851169145817	46
5	625	157.906892301518	47
5	639	164.656561995923	48
5	643	164.733687389323	49
5	647	164.800442894737	50
5	679	175.077078719184	51
5	689	176.883553556693	52
5	699	178.772669572063	53
5	717	182.293407186122	54
5	727	183.59238265609	55
5	761	191.397462119292	56
5	783	196.937210708112	57
5	813	208.122308099694	58
5	835	215.038770147989	59
5	857	218.975423710528	60
5	867	220.62182971958	61
5	875	222.172857887336	62
5	883	223.93596695036	63
5	907	230.002477538236	64
5	917	231.247197343513	65
5	927	233.815232949938	66
5	949	239.524143996534	67
5	953	239.558549681609	68

