version 2
run General-4-20230921-23:12:30-8487
attr configname General
attr datetime 20230921-23:12:30
attr experiment General
attr inifile omnetpp.ini
attr iterationvars ""
attr iterationvarsf ""
attr measurement ""
attr network Network1
attr processid 8487
attr repetition 4
attr replication #4
attr resultdir results
attr runnumber 4
attr seedset 4
param Network1.node[*].transmissionTime "uniform(1s, 2s)"
param Network1.node[*].delayTime "uniform(0.01s, 0.2s)"
param Network1.node[*].processingTime exponential(0.01s)
param Network1.node[*].lossProbability 0.2

vector 0 Network1.node[0] txVector ETV
vector 1 Network1.node[1] txVector ETV
vector 2 Network1.node[3] txVector ETV
vector 3 Network1.node[2] txVector ETV
vector 4 Network1.node[4] txVector ETV
vector 5 Network1.node[5] rxVector ETV
0	1	0.193735669288	0
0	9	2.094357123985	1
0	17	4.070631578718	2
0	25	5.642988070533	3
0	31	7.029559352588	4
0	33	8.978536659539	5
0	37	10.764842643788	6
0	39	12.206191177167	7
0	49	13.271900715925	8
0	51	14.532872794815	9
0	53	15.568630983042	10
0	57	16.797393653229	11
0	69	18.435003901985	12
0	73	19.902754255025	13
0	81	21.457495119576	14
0	91	22.583676780262	15
0	101	23.940049870093	16
0	105	25.020029110056	17
0	111	26.752622562148	18
0	115	27.817690370059	19
0	121	29.409564015841	20
0	123	30.93023841727	21
0	131	32.237251088875	22
0	141	34.047395511451	23
0	143	35.39768072559	24
0	153	36.586706479466	25
0	155	38.005740519999	26
0	157	39.908162378859	27
0	159	41.887778642042	28
0	171	43.511347480737	29
0	179	44.820142045305	30
0	181	46.762727900795	31
0	187	48.228217577483	32
0	189	50.201495574941	33
0	197	51.24158669651	34
0	205	53.138278551553	35
0	215	54.144602491674	36
0	221	56.0704110874	37
0	229	57.480002476521	38
0	239	58.759234416917	39
0	247	60.756638404833	40
0	255	62.676625755302	41
0	267	64.128246447689	42
0	269	65.440451481764	43
0	271	66.558897001355	44
0	281	67.934237146436	45
0	289	69.867616315058	46
0	299	71.482978329912	47
0	301	72.526900838047	48
0	309	73.812145431677	49
0	315	75.269084668171	50
0	317	76.78047195418	51
0	323	78.728797835449	52
0	325	80.277602957946	53
0	335	81.877400447533	54
0	347	83.83135642173	55
0	349	85.667230959202	56
0	353	87.196303341922	57
0	355	88.430083771853	58
0	363	89.813663781306	59
0	365	90.978825556265	60
0	367	92.269665409496	61
0	369	94.015492973534	62
0	379	95.967161565704	63
0	387	97.261604647768	64
0	389	98.904913174604	65
0	397	100.515019571326	66
0	401	102.330185960896	67
0	415	103.529241612332	68
0	423	105.406023119029	69
0	433	106.612986143131	70
0	441	108.553468517645	71
0	443	110.125293211232	72
0	455	111.276782460197	73
0	461	112.388353364694	74
0	469	113.927801557736	75
0	479	114.954901960132	76
0	481	116.02706937996	77
0	483	117.559297904291	78
0	485	119.498126814759	79
0	493	120.802942523419	80
0	499	122.671187101317	81
0	507	123.872169404676	82
0	513	125.305338054582	83
0	519	127.002389493551	84
0	523	128.705519371586	85
0	529	130.671048681405	86
0	533	132.589231982748	87
0	539	134.57174385238	88
0	549	136.196885042978	89
0	551	137.519546058416	90
0	565	139.243943063231	91
0	577	140.624582951577	92
0	587	142.456534347185	93
0	595	144.353400382134	94
0	599	145.693853006386	95
0	601	147.258710111645	96
0	607	148.377855007923	97
0	615	150.037713257284	98
0	621	151.738520489694	99
0	631	153.419209524678	100
0	641	154.691002939517	101
0	643	156.169353469896	102
0	645	157.252176998106	103
0	653	159.21592643989	104
0	661	161.03823938213	105
0	669	162.533109100225	106
0	673	164.190119150017	107
0	679	165.366132632286	108
0	685	166.664459627975	109
0	695	167.69541653168	110
0	705	169.679382242417	111
0	711	171.572258034876	112
0	719	173.285675465517	113
0	727	174.573798275708	114
0	737	176.194421766015	115
0	745	177.772092309935	116
0	749	179.74313883755	117
0	763	180.932695713049	118
0	771	181.97305380196	119
0	773	183.747393284614	120
0	779	184.812391955561	121
0	787	186.088918907025	122
0	791	188.022556209161	123
0	801	189.749638006712	124
0	803	191.38267807678	125
0	805	192.396574082241	126
0	807	194.384760502648	127
0	813	195.601101876857	128
0	815	196.938852816742	129
0	819	198.558503164832	130
0	827	200.143265496396	131
0	829	201.725785576661	132
0	831	203.230697913716	133
0	839	204.593247107385	134
0	841	205.706784300894	135
0	849	206.927713160791	136
0	857	208.741957553352	137
0	859	210.46235233328	138
0	861	211.579819994435	139
0	871	212.726131600483	140
0	873	213.790753905118	141
0	875	214.830951751831	142
0	881	215.908510920049	143
0	883	217.517774470772	144
0	893	218.639035005744	145
0	895	219.741955786168	146
0	903	220.907216833595	147
0	909	222.125012527842	148
0	913	223.922860962728	149
0	919	224.993598948855	150
0	927	226.693233330192	151
0	929	228.413520199636	152
0	935	229.47071291941	153
0	937	231.012564375454	154
0	945	232.143236699204	155
0	953	234.050939399672	156
0	955	235.587419630417	157
0	957	237.235512500086	158
0	959	238.260578786877	159
0	967	239.487441067274	160
1	3	0.205631491707	0
1	11	2.104419621445	1
1	19	4.085117857454	2
1	27	5.653439718533	3
1	35	9.008657427005	4
1	41	12.218125340758	5
1	55	15.581003161296	6
1	59	16.81252686462	7
1	71	18.449447516147	8
1	75	19.922560703725	9
1	83	21.468282374398	10
1	93	22.617171041529	11
1	103	23.950506622498	12
1	107	25.052533904205	13
1	113	26.770389474863	14
1	117	27.857718877544	15
1	125	30.958144931174	16
1	133	32.254389561065	17
1	145	35.414079089742	18
1	161	41.898647128132	19
1	173	43.535339740173	20
1	183	46.787124584168	21
1	191	50.211656576854	22
1	199	51.258596493924	23
1	207	53.149324690173	24
1	217	54.167348308653	25
1	223	56.09480305227	26
1	231	57.491276001028	27
1	241	58.7727247811	28
1	249	60.801271514898	29
1	257	62.693250075548	30
1	273	66.569199263784	31
1	283	67.95749926856	32
1	291	69.879788317015	33
1	303	72.540054304696	34
1	311	73.824820528106	35
1	319	76.795121457744	36
1	327	80.320239942705	37
1	337	81.915351895467	38
1	351	85.682558963023	39
1	357	88.440522230481	40
1	371	94.036363416074	41
1	381	95.985677922351	42
1	391	98.917511171111	43
1	399	100.53596348662	44
1	403	102.345994848873	45
1	417	103.558894264272	46
1	425	105.434415045699	47
1	435	106.624030855521	48
1	445	110.13978710089	49
1	457	111.291149728222	50
1	463	112.402788662458	51
1	471	113.94607482815	52
1	487	119.508783271421	53
1	495	120.826567110013	54
1	501	122.730792999642	55
1	509	123.88297899765	56
1	515	125.346363645993	57
1	521	127.013987977459	58
1	525	128.722868686243	59
1	531	130.684495351205	60
1	535	132.599449019905	61
1	541	134.600928884295	62
1	553	137.540181095508	63
1	567	139.269171285083	64
1	579	140.637026867345	65
1	589	142.485343238992	66
1	597	144.367322242612	67
1	603	147.268912767115	68
1	609	148.396383048227	69
1	617	150.049792023111	70
1	623	151.756278207669	71
1	633	153.439349996744	72
1	647	157.280207179107	73
1	655	159.24673505964	74
1	663	161.06267827995	75
1	671	162.558047564903	76
1	675	164.211668717834	77
1	681	165.400454485142	78
1	687	166.685386058353	79
1	697	167.711047313336	80
1	707	169.694006155263	81
1	713	171.588378485973	82
1	721	173.300359983579	83
1	729	174.600249990474	84
1	739	176.207008404689	85
1	747	177.788485607687	86
1	751	179.765836349383	87
1	765	180.945841529895	88
1	775	183.771686238309	89
1	781	184.82769035395	90
1	789	186.100348239839	91
1	793	188.039316467456	92
1	809	194.39966254249	93
1	817	196.954945352175	94
1	821	198.581315584849	95
1	833	203.244865159392	96
1	843	205.763527163742	97
1	851	206.981073829782	98
1	863	211.609659208027	99
1	877	214.879117142529	100
1	885	217.532697612045	101
1	897	219.797828358836	102
1	905	220.921052251914	103
1	911	222.138444219495	104
1	915	223.933763529942	105
1	921	225.005582605927	106
1	931	228.423665928611	107
1	939	231.038884636485	108
1	947	232.203579090828	109
1	961	238.278214473263	110
1	969	239.505185096909	111
2	5	0.228177698444	0
2	13	2.137768486183	1
2	21	4.096907237256	2
2	45	12.277267769259	3
2	63	16.84701222824	4
2	77	19.959068897719	5
2	85	21.503339556239	6
2	95	22.635660605201	7
2	119	27.882318632791	8
2	137	32.303692362801	9
2	149	35.461517481212	10
2	163	41.915631702136	11
2	167	41.953159302436	12
2	185	46.799736892938	13
2	201	51.271777514445	14
2	211	53.202032935331	15
2	233	57.518961389596	16
2	243	58.786704545412	17
2	261	62.723545641787	18
2	265	62.767595849796	19
2	275	66.584210266688	20
2	285	68.014237735823	21
2	293	69.893844813964	22
2	313	73.847135505545	23
2	331	80.357954995245	24
2	341	81.954943463579	25
2	359	88.452549758946	26
2	373	94.051856584702	27
2	383	95.999790437997	28
2	393	98.947542975315	29
2	407	102.393333706563	30
2	411	102.444970862886	31
2	419	103.582389650817	32
2	427	105.454943356492	33
2	437	106.647123929178	34
2	449	110.211992385239	35
2	475	113.993899293962	36
2	489	119.525410515299	37
2	497	120.854365062983	38
2	517	125.372255725528	39
2	527	128.738861753121	40
2	537	132.618600239546	41
2	543	134.618486215047	42
2	555	137.562956360576	43
2	559	137.607015475036	44
2	571	139.296743553086	45
2	581	140.655703384946	46
2	591	142.511523691976	47
2	611	148.424347794387	48
2	627	151.805404251265	49
2	635	153.449507830741	50
2	659	159.279355874846	51
2	665	161.073964697437	52
2	677	164.224563617778	53
2	683	165.423048472389	54
2	689	166.72840188601	55
2	701	167.769670976485	56
2	715	171.600891996738	57
2	733	174.672965640857	58
2	753	179.778945114966	59
2	757	179.84034936074	60
2	777	183.788077263674	61
2	783	184.837764519264	62
2	795	188.073953672466	63
2	823	198.592693279825	64
2	835	203.256008174476	65
2	867	211.654527190737	66
2	889	217.556920003149	67
2	899	219.816873739176	68
2	917	223.952364165151	69
2	923	225.016243977906	70
2	933	228.453543464289	71
2	949	232.215253313252	72
2	965	238.311893258653	73
3	7	0.247279696778	0
3	15	2.162881753952	1
3	29	5.680103087666	2
3	43	12.241344655515	3
3	61	16.827232797591	4
3	65	16.85850594679	5
3	79	19.979217780183	6
3	87	21.517132757424	7
3	97	22.658882207353	8
3	109	25.063591737222	9
3	127	30.976622876451	10
3	135	32.292082140641	11
3	147	35.445776875003	12
3	165	41.943120016396	13
3	169	41.972622210592	14
3	175	43.550592819768	15
3	193	50.234634395508	16
3	209	53.186796837451	17
3	219	54.200185135174	18
3	225	56.126966001478	19
3	235	57.544456991171	20
3	251	60.825104184959	21
3	259	62.713379431941	22
3	263	62.736050544207	23
3	277	66.600100394444	24
3	287	68.048039381175	25
3	295	69.906528551732	26
3	305	72.555050635102	27
3	321	76.807160522643	28
3	329	80.333705219586	29
3	339	81.942960787733	30
3	343	81.972934658522	31
3	375	94.062807107034	32
3	405	102.378943436498	33
3	409	102.430445652308	34
3	429	105.467404480656	35
3	447	110.189128528126	36
3	451	110.232361397618	37
3	459	111.309618172611	38
3	465	112.414017444756	39
3	473	113.973181899114	40
3	477	114.050389468358	41
3	503	122.744171349778	42
3	511	123.893789701381	43
3	545	134.635468908211	44
3	557	137.584832555689	45
3	561	137.646762902087	46
3	569	139.282792190126	47
3	573	139.307144726051	48
3	583	140.666269903337	49
3	593	142.539532458901	50
3	605	147.280209727721	51
3	613	148.45902967793	52
3	619	150.081833533718	53
3	625	151.776844991266	54
3	629	151.834974286735	55
3	637	153.461517677156	56
3	649	157.312652767178	57
3	657	159.269015891764	58
3	691	166.741972654392	59
3	699	167.757164342375	60
3	709	169.716196896407	61
3	723	173.321506071465	62
3	731	174.640851183584	63
3	741	176.235676672407	64
3	755	179.804283202145	65
3	759	179.854172644669	66
3	767	181.010542079138	67
3	797	188.096074768597	68
3	811	194.417771276007	69
3	837	203.298131269515	70
3	845	205.77751265124	71
3	853	207.005695316863	72
3	865	211.632539725672	73
3	879	214.903069034238	74
3	887	217.545217187777	75
3	907	220.931907963889	76
3	925	225.027049910573	77
3	941	231.052512518761	78
3	963	238.291408696839	79
3	971	239.527234067226	80
4	23	4.123617591557	0
4	47	12.315005116637	1
4	67	16.873215199617	2
4	89	21.532524602151	3
4	99	22.67793789447	4
4	129	31.004409459074	5
4	139	32.339921452458	6
4	151	35.472990027547	7
4	177	43.58742966758	8
4	195	50.255348783179	9
4	203	51.288163499547	10
4	213	53.228684403461	11
4	227	56.138413399559	12
4	237	57.558611030835	13
4	245	58.80219269277	14
4	253	60.836057302768	15
4	279	66.614846054914	16
4	297	69.918333201922	17
4	307	72.579142142562	18
4	333	80.378187100966	19
4	345	81.991543977233	20
4	361	88.470928459277	21
4	377	94.072983999068	22
4	385	96.014185130376	23
4	395	98.957758581406	24
4	413	102.476290985313	25
4	421	103.594498466206	26
4	431	105.478719433984	27
4	439	106.658327056689	28
4	453	110.271937636146	29
4	467	112.447966914392	30
4	491	119.542164977953	31
4	505	122.757573991993	32
4	547	134.648762144139	33
4	563	137.662081128683	34
4	575	139.317997190181	35
4	585	140.708790042116	36
4	639	153.473976083932	37
4	651	157.33641707401	38
4	667	161.087593661847	39
4	693	166.752606100267	40
4	703	167.78323860941	41
4	717	171.617100943803	42
4	725	173.332717355443	43
4	735	174.700299338066	44
4	743	176.259997356492	45
4	761	179.882524229282	46
4	769	181.021190150704	47
4	785	184.8537189203	48
4	799	188.12309840277	49
4	825	198.641007593061	50
4	847	205.793936509106	51
4	855	207.029888800536	52
4	869	211.670441896931	53
4	891	217.585434633117	54
4	901	219.838208339359	55
4	943	231.06409206777	56
4	951	232.244419360695	57
4	973	239.543455460959	58
5	24	4.133617591557	0
5	48	12.325005116637	1
5	68	16.883215199617	2
5	90	21.542524602151	3
5	130	31.014409459074	4
5	196	50.265348783179	5
5	204	51.298163499547	6
5	214	53.238684403461	7
5	228	56.148413399559	8
5	238	57.568611030835	9
5	246	58.81219269277	10
5	254	60.846057302768	11
5	280	66.624846054914	12
5	298	69.928333201922	13
5	308	72.589142142562	14
5	346	82.001543977233	15
5	362	88.480928459277	16
5	378	94.082983999068	17
5	386	96.024185130376	18
5	396	98.967758581406	19
5	414	102.486290985313	20
5	422	103.604498466206	21
5	432	105.488719433984	22
5	454	110.281937636146	23
5	468	112.457966914392	24
5	492	119.552164977953	25
5	506	122.767573991993	26
5	548	134.658762144139	27
5	564	137.672081128683	28
5	576	139.327997190181	29
5	586	140.718790042116	30
5	668	161.097593661847	31
5	694	166.762606100267	32
5	704	167.79323860941	33
5	726	173.342717355443	34
5	736	174.710299338066	35
5	744	176.269997356492	36
5	762	179.892524229282	37
5	770	181.031190150704	38
5	786	184.8637189203	39
5	826	198.651007593061	40
5	848	205.803936509106	41
5	856	207.039888800536	42
5	870	211.680441896931	43
5	892	217.595434633117	44
5	902	219.848208339359	45
5	944	231.07409206777	46
5	974	239.553455460959	47

