version 2
run General-3-20230921-23:12:30-8487
attr configname General
attr datetime 20230921-23:12:30
attr experiment General
attr inifile omnetpp.ini
attr iterationvars ""
attr iterationvarsf ""
attr measurement ""
attr network Network1
attr processid 8487
attr repetition 3
attr replication #3
attr resultdir results
attr runnumber 3
attr seedset 3
param Network1.node[*].transmissionTime "uniform(1s, 2s)"
param Network1.node[*].delayTime "uniform(0.01s, 0.2s)"
param Network1.node[*].processingTime exponential(0.01s)
param Network1.node[*].lossProbability 0.2

vector 0 Network1.node[0] txVector ETV
vector 1 Network1.node[1] txVector ETV
vector 2 Network1.node[3] txVector ETV
vector 3 Network1.node[2] txVector ETV
vector 4 Network1.node[4] txVector ETV
vector 5 Network1.node[5] rxVector ETV
0	1	0.114651601831	0
0	5	1.185376482154	1
0	11	2.69620408311	2
0	17	3.90344696173	3
0	25	5.360280184378	4
0	33	7.126106558903	5
0	41	8.56656028151	6
0	45	10.459625387867	7
0	47	12.435620815796	8
0	55	14.108004494407	9
0	59	15.895142994891	10
0	73	17.120197497611	11
0	75	18.57481957979	12
0	83	19.780229919892	13
0	91	21.142570378561	14
0	99	22.810705183609	15
0	107	24.112968797166	16
0	115	25.836907933768	17
0	117	27.012970049003	18
0	119	29.00327123755	19
0	121	30.695921853952	20
0	125	32.448061883984	21
0	137	34.400163129041	22
0	151	36.200766639853	23
0	159	37.403644288028	24
0	161	38.892517537414	25
0	169	40.820453887409	26
0	171	42.162873474252	27
0	175	43.772519189003	28
0	179	44.915851503448	29
0	187	46.173057881487	30
0	195	47.825281006354	31
0	201	49.685334469262	32
0	209	51.676630190178	33
0	215	53.540749859833	34
0	221	55.235713298269	35
0	229	56.962403052789	36
0	237	58.459068007371	37
0	249	59.699638322065	38
0	259	61.628137168544	39
0	261	63.271212147385	40
0	273	65.05359612645	41
0	277	66.754107907483	42
0	279	67.77620372183	43
0	285	68.99858004141	44
0	291	70.475511805689	45
0	299	72.278339775814	46
0	303	73.354836056544	47
0	305	74.480657096323	48
0	313	76.473580653383	49
0	321	78.09231723689	50
0	325	79.123246433283	51
0	331	80.123991953512	52
0	339	81.803493761295	53
0	345	82.984234090266	54
0	353	84.777556768456	55
0	359	86.053109229845	56
0	361	87.664703066298	57
0	365	88.706733920216	58
0	373	89.807311632974	59
0	375	91.778533869261	60
0	383	93.26038025769	61
0	395	95.104655889632	62
0	397	96.218099975563	63
0	405	97.726257406944	64
0	413	98.749280381087	65
0	415	100.226372020157	66
0	423	101.726937571378	67
0	431	103.623346557911	68
0	439	105.191248730827	69
0	441	107.033489958221	70
0	445	108.666450491479	71
0	455	110.34126042768	72
0	461	111.884439880565	73
0	465	113.419415460039	74
0	469	114.831846526429	75
0	475	115.969656419313	76
0	483	117.485900900165	77
0	491	119.111409293792	78
0	499	120.881064011554	79
0	503	122.519694354689	80
0	511	124.266365449015	81
0	521	125.804970774172	82
0	523	127.696394448007	83
0	525	129.551942649602	84
0	527	130.880179002487	85
0	531	131.966422620068	86
0	533	133.501347956785	87
0	541	134.965884934251	88
0	543	136.048676959776	89
0	551	137.269350613306	90
0	553	138.614304078581	91
0	555	140.009055952612	92
0	559	141.031287841104	93
0	573	143.029634919787	94
0	585	144.057272527438	95
0	587	145.776763032727	96
0	597	147.257454817254	97
0	605	148.751784388978	98
0	615	150.297187954258	99
0	619	151.826124026511	100
0	621	153.510425697385	101
0	629	155.037387954608	102
0	633	156.286077886658	103
0	639	157.443312568428	104
0	641	158.949278845755	105
0	649	160.010326914094	106
0	657	161.96989221389	107
0	661	163.94728644013	108
0	673	165.661660153024	109
0	675	167.090613283288	110
0	679	168.471454395285	111
0	683	169.693216304133	112
0	689	170.763335316746	113
0	693	171.937133763057	114
0	697	173.796165834253	115
0	703	174.882683974763	116
0	713	176.748699793897	117
0	721	178.071788243556	118
0	725	179.954119738264	119
0	745	181.78865692213	120
0	753	183.622342440838	121
0	761	184.964550289165	122
0	763	186.391448882481	123
0	771	188.06872213872	124
0	773	189.244233771999	125
0	777	190.489431356619	126
0	779	191.927466192589	127
0	787	193.424533721599	128
0	801	195.218767918254	129
0	809	197.13259091515	130
0	823	198.487365184658	131
0	829	199.494982676654	132
0	833	200.626995152169	133
0	839	202.321520349317	134
0	847	204.299781968192	135
0	855	206.109458865904	136
0	857	207.933588474829	137
0	865	209.011770773519	138
0	867	210.976488858069	139
0	873	212.615242485962	140
0	875	213.830934671992	141
0	885	215.288662611115	142
0	893	216.725693828733	143
0	903	218.230336851281	144
0	911	220.021498099741	145
0	913	221.51157277271	146
0	921	222.829371218643	147
0	927	224.289014073162	148
0	933	225.503156994776	149
0	943	227.221017142599	150
0	953	228.346012321142	151
0	961	230.018635199014	152
0	965	231.045777774257	153
0	967	232.326874848995	154
0	971	234.182719326419	155
0	979	235.818185112979	156
0	989	237.570068202521	157
0	991	238.574586575459	158
1	3	0.14297423212	0
1	7	1.217720790617	1
1	13	2.706732472287	2
1	19	3.923920757162	3
1	27	5.406642398294	4
1	35	7.137812873323	5
1	43	8.589233740233	6
1	49	12.468934170576	7
1	57	14.130506956958	8
1	61	15.910360511133	9
1	77	18.587068264099	10
1	85	19.797488578752	11
1	93	21.156723240292	12
1	101	22.837157009446	13
1	109	24.129414055217	14
1	123	30.707157286533	15
1	127	32.469506722262	16
1	139	34.414469807835	17
1	153	36.242547874251	18
1	163	38.918011234235	19
1	173	42.17415882597	20
1	177	43.787865710023	21
1	181	44.929090007385	22
1	189	46.214396225119	23
1	197	47.837745101292	24
1	203	49.697050300533	25
1	211	51.690067388789	26
1	217	53.569164796548	27
1	223	55.247215332887	28
1	231	56.984568220986	29
1	239	58.486662642077	30
1	251	59.714149375853	31
1	263	63.296999404923	32
1	275	65.08195707095	33
1	281	67.790615873081	34
1	287	69.015842650847	35
1	293	70.508615035732	36
1	301	72.296078851616	37
1	307	74.496340483646	38
1	315	76.485291439187	39
1	323	78.104958173543	40
1	327	79.133554235746	41
1	333	80.149849391259	42
1	341	81.827112878235	43
1	347	83.004293604682	44
1	355	84.789126698459	45
1	363	87.68010332626	46
1	367	88.723703933065	47
1	377	91.801840323647	48
1	385	93.275593684791	49
1	399	96.24861742575	50
1	407	97.738327045893	51
1	417	100.241777343948	52
1	425	101.750528394077	53
1	433	103.634567468543	54
1	443	107.059153299395	55
1	447	108.692097727226	56
1	457	110.359410579412	57
1	463	111.906182846016	58
1	467	113.463446516658	59
1	471	114.841867804659	60
1	477	115.988100964068	61
1	485	117.507001660852	62
1	493	119.122982793735	63
1	501	120.899618509447	64
1	505	122.538213938267	65
1	513	124.289024908185	66
1	529	130.894374834482	67
1	535	133.511415124046	68
1	545	136.077722635898	69
1	557	140.029854261978	70
1	561	141.05138444632	71
1	575	143.040721745752	72
1	589	145.787642841932	73
1	599	147.274962690283	74
1	607	148.793360118683	75
1	617	150.308617916599	76
1	623	153.524603250117	77
1	631	155.053305405451	78
1	635	156.296364907288	79
1	643	158.961236135526	80
1	651	160.028455236274	81
1	659	161.989664247204	82
1	663	163.959157097339	83
1	677	167.114262713021	84
1	681	168.497176119837	85
1	685	169.720534914436	86
1	691	170.792956000118	87
1	695	171.958061874095	88
1	699	173.811881974163	89
1	705	174.897459837878	90
1	715	176.762970280396	91
1	723	178.092139466397	92
1	727	179.966049527105	93
1	747	181.804373970928	94
1	755	183.645311763445	95
1	765	186.407220902744	96
1	775	189.254922664926	97
1	781	191.965510352953	98
1	789	193.436146639734	99
1	803	195.265379030766	100
1	811	197.14391863475	101
1	825	198.504073399388	102
1	831	199.50882214134	103
1	835	200.647872669389	104
1	841	202.332499207658	105
1	849	204.315273077189	106
1	859	207.959435421845	107
1	869	211.010895593728	108
1	877	213.870023029242	109
1	887	215.306142028917	110
1	895	216.736148798444	111
1	905	218.262492738991	112
1	915	221.539596226394	113
1	923	222.851927294853	114
1	929	224.302935510498	115
1	935	225.524680797464	116
1	945	227.232595632222	117
1	955	228.369859637921	118
1	963	230.036229689599	119
1	969	232.342907633674	120
1	973	234.201860061499	121
1	981	235.831660253954	122
1	993	238.591692790641	123
2	9	1.227910050438	0
2	29	5.42200556261	1
2	37	7.161987225582	2
2	51	12.484025623541	3
2	63	15.934150022489	4
2	67	15.968202709564	5
2	79	18.615459363869	6
2	97	21.200108088955	7
2	111	24.141732948759	8
2	131	32.497059129419	9
2	143	34.460672693782	10
2	147	34.493111811222	11
2	183	44.949620359204	12
2	191	46.232317743477	13
2	199	47.86591356221	14
2	205	49.72964271496	15
2	213	51.718887860588	16
2	219	53.604404650148	17
2	233	57.030190440643	18
2	241	58.497782261592	19
2	245	58.52709347647	20
2	253	59.743008136599	21
2	267	63.333031207219	22
2	295	70.540177521098	23
2	329	79.146794486819	24
2	335	80.165342014274	25
2	343	81.846201145829	26
2	351	83.038009271018	27
2	357	84.813785863327	28
2	369	88.734339091178	29
2	379	91.821446528669	30
2	387	93.30576426499	31
2	391	93.338016192043	32
2	419	100.266223116547	33
2	427	101.785763281812	34
2	435	103.653543973043	35
2	451	108.731158884015	36
2	517	124.317449657167	37
2	565	141.090767126376	38
2	569	141.130715648071	39
2	579	143.07515734821	40
2	591	145.80593988481	41
2	611	148.832160414264	42
2	627	153.559316454145	43
2	645	158.975004925564	44
2	653	160.044391466311	45
2	667	164.005026365671	46
2	701	173.864499031203	47
2	709	174.950358745761	48
2	717	176.780250146135	49
2	731	179.991258403621	50
2	735	180.054737710488	51
2	739	180.113631195945	52
2	743	180.147046311096	53
2	749	181.821973713686	54
2	757	183.673572252442	55
2	791	193.447851454076	56
2	795	193.511908561292	57
2	805	195.29837398627	58
2	815	197.183084907907	59
2	819	197.229680704845	60
2	827	198.530730128768	61
2	843	202.342541844789	62
2	851	204.343913897757	63
2	871	211.031491526481	64
2	879	213.891632160652	65
2	899	216.778655983013	66
2	917	221.566900165544	67
2	925	222.886684948987	68
2	937	225.536340287839	69
2	947	227.247472607345	70
2	957	228.382412476471	71
2	983	235.846877812134	72
3	15	2.728601127249	0
3	21	3.938288845562	1
3	65	15.947600207841	2
3	69	15.987027713219	3
3	87	19.819235726413	4
3	95	21.184217603413	5
3	103	22.849778247068	6
3	113	24.152486243571	7
3	129	32.483995417503	8
3	133	32.524194939379	9
3	141	34.435267494414	10
3	145	34.475228819923	11
3	155	36.271584046189	12
3	165	38.949805897623	13
3	193	46.242912393479	14
3	225	55.267701368947	15
3	243	58.514369661905	16
3	247	58.557664761016	17
3	255	59.762233501838	18
3	265	63.321914523484	19
3	269	63.35693532779	20
3	283	67.807888795887	21
3	289	69.043503631067	22
3	309	74.515094656851	23
3	317	76.504900507663	24
3	349	83.017363280168	25
3	381	91.850900281782	26
3	389	93.316881868936	27
3	401	96.259161723835	28
3	409	97.76087573109	29
3	437	103.671176151624	30
3	449	108.711183547732	31
3	459	110.377875865131	32
3	473	114.85712025965	33
3	479	116.007449170985	34
3	487	117.526778671255	35
3	495	119.133850058538	36
3	507	122.552348594071	37
3	515	124.30708656283	38
3	519	124.356564913701	39
3	537	133.529174994813	40
3	547	136.097380788397	41
3	563	141.073354575375	42
3	567	141.114853731668	43
3	577	143.055531583298	44
3	581	143.097741003644	45
3	593	145.819278739187	46
3	601	147.285892410582	47
3	609	148.807866646145	48
3	625	153.545873475505	49
3	637	156.32832199372	50
3	665	163.991680712743	51
3	669	164.031401979409	52
3	687	169.740934004	53
3	707	174.921890903214	54
3	729	179.981106244143	55
3	733	180.021433084099	56
3	737	180.083368985362	57
3	741	180.126567730022	58
3	767	186.418934072732	59
3	783	191.987341748489	60
3	793	193.464617578394	61
3	797	193.525412451233	62
3	813	197.166274646183	63
3	817	197.194629623405	64
3	821	197.278497749572	65
3	837	200.658340585204	66
3	861	207.979278442332	67
3	881	213.91279096146	68
3	889	215.316320131723	69
3	897	216.765539415423	70
3	907	218.279226413084	71
3	931	224.315547682885	72
3	939	225.557759235001	73
3	949	227.258722172007	74
3	975	234.215868263366	75
3	985	235.862122698683	76
4	23	3.957225893101	0
4	31	5.435663593501	1
4	39	7.175645298347	2
4	53	12.494993122824	3
4	71	16.013699853724	4
4	81	18.632067819926	5
4	89	19.83303786074	6
4	105	22.866364657367	7
4	135	32.547152878425	8
4	149	34.505244638231	9
4	157	36.28792116237	10
4	167	38.96226472103	11
4	185	44.977653396321	12
4	207	49.743797959175	13
4	227	55.298674331696	14
4	235	57.10143994233	15
4	257	59.777868999826	16
4	271	63.401812417569	17
4	297	70.553832188692	18
4	311	74.528566918579	19
4	319	76.516562107899	20
4	337	80.180300695034	21
4	371	88.762596602587	22
4	393	93.358088560048	23
4	403	96.272064315085	24
4	411	97.783460573611	25
4	421	100.287273070104	26
4	429	101.831914155975	27
4	453	108.74962502957	28
4	481	116.039655038055	29
4	489	117.543532948494	30
4	497	119.144353063034	31
4	509	122.590383772114	32
4	539	133.556339170008	33
4	549	136.109958195786	34
4	571	141.164282355209	35
4	583	143.108190938146	36
4	595	145.835647689438	37
4	603	147.308984771519	38
4	613	148.868037569968	39
4	647	159.004206165996	40
4	655	160.063994967725	41
4	671	164.061500281045	42
4	711	174.992765926766	43
4	719	176.797393299372	44
4	751	181.854001556503	45
4	759	183.684147337589	46
4	769	186.442049302688	47
4	785	192.002518323823	48
4	799	193.538163790379	49
4	807	195.322738854211	50
4	845	202.362571736716	51
4	853	204.357348302062	52
4	863	208.005534344783	53
4	883	213.923769381056	54
4	891	215.353943261058	55
4	901	216.820980974144	56
4	909	218.317674296176	57
4	919	221.588126130316	58
4	941	225.597645919857	59
4	951	227.275875760931	60
4	959	228.396404270363	61
4	977	234.241137792161	62
4	987	235.882596117027	63
5	32	5.445663593501	0
5	40	7.185645298347	1
5	54	12.504993122824	2
5	72	16.023699853724	3
5	82	18.642067819926	4
5	90	19.84303786074	5
5	136	32.557152878425	6
5	150	34.515244638231	7
5	158	36.29792116237	8
5	208	49.753797959175	9
5	258	59.787868999826	10
5	272	63.411812417569	11
5	298	70.563832188692	12
5	312	74.538566918579	13
5	320	76.526562107899	14
5	372	88.772596602587	15
5	394	93.368088560048	16
5	404	96.282064315085	17
5	412	97.793460573611	18
5	422	100.297273070104	19
5	454	108.75962502957	20
5	482	116.049655038055	21
5	490	117.553532948494	22
5	498	119.154353063034	23
5	510	122.600383772114	24
5	540	133.566339170008	25
5	550	136.119958195786	26
5	604	147.318984771519	27
5	614	148.878037569968	28
5	648	159.014206165996	29
5	656	160.073994967725	30
5	672	164.071500281045	31
5	712	175.002765926766	32
5	720	176.807393299372	33
5	752	181.864001556503	34
5	760	183.694147337589	35
5	786	192.012518323823	36
5	800	193.548163790379	37
5	808	195.332738854211	38
5	846	202.372571736716	39
5	854	204.367348302062	40
5	864	208.015534344783	41
5	884	213.933769381056	42
5	892	215.363943261058	43
5	902	216.830980974144	44
5	910	218.327674296176	45
5	942	225.607645919857	46
5	952	227.285875760931	47
5	988	235.892596117027	48

