version 2
run General-2-20230921-23:12:30-8487
attr configname General
attr datetime 20230921-23:12:30
attr experiment General
attr inifile omnetpp.ini
attr iterationvars ""
attr iterationvarsf ""
attr measurement ""
attr network Network1
attr processid 8487
attr repetition 2
attr replication #2
attr resultdir results
attr runnumber 2
attr seedset 2
param Network1.node[*].transmissionTime "uniform(1s, 2s)"
param Network1.node[*].delayTime "uniform(0.01s, 0.2s)"
param Network1.node[*].processingTime exponential(0.01s)
param Network1.node[*].lossProbability 0.2

vector 0 Network1.node[0] txVector ETV
vector 1 Network1.node[1] txVector ETV
vector 2 Network1.node[2] txVector ETV
vector 3 Network1.node[3] txVector ETV
vector 4 Network1.node[4] txVector ETV
vector 5 Network1.node[5] rxVector ETV
0	1	0.092839031499	0
0	3	1.277921112972	1
0	13	3.20946197656	2
0	19	4.69463789139	3
0	29	6.193199059014	4
0	35	8.162831466664	5
0	37	9.344558503963	6
0	45	10.838848271891	7
0	53	12.306635756995	8
0	57	13.919665450714	9
0	59	15.08196405393	10
0	71	16.782716397447	11
0	77	18.250558889023	12
0	83	20.198649312387	13
0	95	21.945280725387	14
0	103	23.238303957758	15
0	115	24.755734718889	16
0	123	26.553139662389	17
0	131	28.320627921047	18
0	135	29.433404136701	19
0	145	31.080418362534	20
0	155	32.612562803338	21
0	163	33.981170344884	22
0	169	35.895085821646	23
0	173	37.721335648345	24
0	181	39.559166196287	25
0	187	40.745793340281	26
0	189	42.375153066842	27
0	191	43.67032537262	28
0	199	44.857611916746	29
0	205	45.883996062932	30
0	209	47.389407698085	31
0	215	48.550874264931	32
0	219	50.20389477445	33
0	223	52.016676726073	34
0	225	53.104239235187	35
0	233	54.134828713045	36
0	241	55.493069020819	37
0	249	57.112710482229	38
0	261	58.985837822335	39
0	269	60.76342573438	40
0	273	62.440565477378	41
0	281	63.855025530347	42
0	289	65.682478880762	43
0	297	67.070813058662	44
0	313	68.452475636053	45
0	323	69.583870243534	46
0	325	71.389001783702	47
0	333	73.222163026707	48
0	343	75.088343268513	49
0	347	76.483557327437	50
0	349	77.898036576361	51
0	351	79.83481765098	52
0	353	81.477270076536	53
0	355	82.864170421632	54
0	357	84.719290089114	55
0	369	86.100082670125	56
0	373	87.850335933287	57
0	377	89.689238530835	58
0	383	91.080212792866	59
0	385	92.322550295871	60
0	395	93.529169047037	61
0	399	94.935347478855	62
0	403	96.588254428021	63
0	415	97.751593697834	64
0	421	99.577744514001	65
0	429	101.529254665616	66
0	431	102.582744840085	67
0	439	104.014877940779	68
0	445	105.275597958611	69
0	455	107.168503836747	70
0	465	108.897504640762	71
0	473	110.565603975225	72
0	481	111.78439092149	73
0	491	113.141909152521	74
0	497	114.204810688291	75
0	505	116.139964249237	76
0	517	117.342324916292	77
0	523	118.953414216191	78
0	525	120.801615625639	79
0	527	122.642738579326	80
0	539	124.597027214962	81
0	543	126.077750436981	82
0	551	127.110604370498	83
0	557	128.830821016357	84
0	559	130.028820907251	85
0	567	131.23072040991	86
0	571	132.558114592937	87
0	573	134.017804889261	88
0	581	135.879781347486	89
0	587	137.476797891334	90
0	591	138.766473380402	91
0	593	140.607535974141	92
0	607	141.643320951629	93
0	615	142.948517088331	94
0	617	144.266415584851	95
0	627	145.838424403006	96
0	635	147.322477971921	97
0	637	149.137148587751	98
0	649	150.493658397366	99
0	653	152.050627127775	100
0	661	153.986846355508	101
0	663	155.194821374045	102
0	669	156.741635298842	103
0	679	157.80278906298	104
0	689	159.237881489118	105
0	695	160.241216931978	106
0	703	161.306927608113	107
0	707	163.114894320044	108
0	713	164.691048671744	109
0	715	166.137516781009	110
0	719	167.899947341551	111
0	723	169.338472383116	112
0	731	170.932212753008	113
0	739	171.95725135903	114
0	747	173.620892614612	115
0	755	175.543955344261	116
0	757	176.712008466033	117
0	765	178.456264356404	118
0	773	180.001425768967	119
0	779	181.447710739468	120
0	787	183.095480215522	121
0	795	184.922277695984	122
0	797	186.396582816281	123
0	805	187.687041086397	124
0	813	188.807881835868	125
0	815	190.005977469749	126
0	819	191.35608285132	127
0	827	192.591519573258	128
0	837	194.064387982266	129
0	845	195.34204105057	130
0	853	196.831784904722	131
0	859	198.830064433647	132
0	863	200.477905085796	133
0	873	202.241105308543	134
0	881	203.493914522949	135
0	889	205.485839761581	136
0	891	207.410062291912	137
0	899	208.963942940134	138
0	909	210.34450921721	139
0	913	212.336180346573	140
0	915	214.215394834776	141
0	925	215.960271091221	142
0	927	217.882700410459	143
0	933	219.708805885652	144
0	939	220.862226675052	145
0	955	221.972158873707	146
0	969	223.770871496547	147
0	975	225.321416941725	148
0	977	226.792131666115	149
0	979	228.083247788737	150
0	981	229.188637658276	151
0	989	231.044180636315	152
0	997	232.722339657156	153
0	1005	234.231819758445	154
0	1021	235.291693791535	155
0	1029	236.58038214247	156
0	1037	238.080580130706	157
0	1039	239.176097736249	158
1	5	1.317434556699	0
1	15	3.229478767117	1
1	21	4.713476053694	2
1	31	6.206723304054	3
1	39	9.362900201132	4
1	47	10.851101521517	5
1	55	12.36357795367	6
1	61	15.125360679511	7
1	73	16.795920836785	8
1	79	18.277868428818	9
1	85	20.214297516446	10
1	97	21.962705504738	11
1	105	23.269886346611	12
1	117	24.768873457254	13
1	125	26.587729194732	14
1	133	28.334385894693	15
1	137	29.475068315843	16
1	147	31.124929774915	17
1	157	32.624993796808	18
1	165	33.996613056645	19
1	171	35.914855872235	20
1	175	37.739024138372	21
1	183	39.570338088798	22
1	193	43.681326759349	23
1	201	44.887991736357	24
1	207	45.898077168939	25
1	211	47.419821135225	26
1	217	48.576913074454	27
1	221	50.221788551758	28
1	227	53.118657439473	29
1	235	54.14502038964	30
1	243	55.506499936219	31
1	251	57.129347410072	32
1	263	59.010848277482	33
1	271	60.795126173889	34
1	275	62.469449360817	35
1	283	63.872784251043	36
1	291	65.718502493769	37
1	299	67.114274656328	38
1	315	68.466731753316	39
1	327	71.401305903701	40
1	335	73.268659370337	41
1	345	75.107469901243	42
1	359	84.731254007836	43
1	371	86.116135467436	44
1	375	87.86653004855	45
1	379	89.704125641479	46
1	387	92.338073881609	47
1	397	93.539791073981	48
1	401	94.9518433063	49
1	405	96.611276274371	50
1	417	97.773440385976	51
1	423	99.606867725142	52
1	433	102.596133929675	53
1	441	104.030030259369	54
1	447	105.285893784637	55
1	457	107.179852417845	56
1	467	108.914496429622	57
1	475	110.587804345355	58
1	483	111.794485874601	59
1	493	113.15294012102	60
1	499	114.217118636221	61
1	507	116.172636889049	62
1	519	117.359730854656	63
1	529	122.652763434413	64
1	541	124.608774046067	65
1	545	126.103158788307	66
1	553	127.133018372081	67
1	561	130.062578857741	68
1	569	131.274065194799	69
1	575	134.030477950133	70
1	583	135.898286665029	71
1	589	137.507667796779	72
1	595	140.6242431118	73
1	609	141.659948537153	74
1	619	144.28107443438	75
1	629	145.880248411595	76
1	639	149.224660611704	77
1	651	150.51124418411	78
1	655	152.062286108326	79
1	665	155.211283795195	80
1	671	156.756299741299	81
1	681	157.817429041552	82
1	691	159.273755965162	83
1	697	160.255033685714	84
1	705	161.319717960712	85
1	709	163.126942202903	86
1	717	166.157638285502	87
1	721	167.911380335365	88
1	725	169.356269823457	89
1	733	170.945244314209	90
1	741	171.971803069884	91
1	749	173.656562932334	92
1	759	176.727528524745	93
1	767	178.478804927878	94
1	775	180.01408190102	95
1	781	181.458371337327	96
1	789	183.121004153571	97
1	799	186.410284721899	98
1	807	187.699393215065	99
1	817	190.022129559308	100
1	821	191.394847659267	101
1	829	192.611325530037	102
1	839	194.076014676389	103
1	847	195.372574231119	104
1	855	196.84450658719	105
1	861	198.841360528592	106
1	865	200.493636433804	107
1	875	202.256336747439	108
1	883	203.507493876184	109
1	893	207.422887086256	110
1	901	208.97448486068	111
1	911	210.360730755628	112
1	917	214.226726151033	113
1	929	217.899707291536	114
1	935	219.719196966944	115
1	941	220.878514264091	116
1	957	221.986366564049	117
1	971	223.783038754185	118
1	983	229.200871548366	119
1	991	231.059563096733	120
1	999	232.74442421716	121
1	1007	234.248439928338	122
1	1023	235.309295297885	123
1	1031	236.590784798576	124
1	1041	239.188418149568	125
2	7	1.332888171871	0
2	17	3.247010756202	1
2	25	4.756763974916	2
2	33	6.222311605815	3
2	41	9.374031279897	4
2	63	15.137810353187	5
2	67	15.164983933157	6
2	75	16.813778027335	7
2	81	18.293081819927	8
2	87	20.275213817997	9
2	91	20.311414155786	10
2	109	23.297901601016	11
2	119	24.799935443766	12
2	141	29.518620750391	13
2	149	31.136367949901	14
2	229	53.152809997314	15
2	245	55.564763404315	16
2	255	57.160343340749	17
2	265	59.039717466272	18
2	279	62.502875038659	19
2	287	63.903953608292	20
2	301	67.124321400617	21
2	305	67.169489532834	22
2	309	67.230809935267	23
2	319	68.503476212252	24
2	329	71.416568675	25
2	337	73.299913978979	26
2	363	84.756275363011	27
2	381	89.716058142315	28
2	389	92.348988229505	29
2	409	96.639561132385	30
2	419	97.788595333348	31
2	437	102.625897244081	32
2	443	104.04157337731	33
2	449	105.307270062944	34
2	461	107.241337767937	35
2	487	111.820902926368	36
2	501	114.252507299051	37
2	511	116.204448903776	38
2	533	122.681936745401	39
2	565	130.114530816005	40
2	599	140.658645901632	41
2	603	140.705594110398	42
2	611	141.671621677949	43
2	623	144.319863086615	44
2	641	149.24815838117	45
2	645	149.314465616926	46
2	657	152.076881149485	47
2	673	156.769077469676	48
2	683	157.836655771966	49
2	693	159.288219247461	50
2	699	160.266093809493	51
2	711	163.137184563195	52
2	727	169.383967602077	53
2	751	173.70499890709	54
2	763	176.77025554325	55
2	769	178.490321780849	56
2	791	183.157559265446	57
2	801	186.421017926652	58
2	811	187.744034478654	59
2	831	192.624461851368	60
2	841	194.105984518118	61
2	857	196.860712697383	62
2	869	200.518773274305	63
2	877	202.270487950311	64
2	895	207.443181084373	65
2	903	208.990882882576	66
2	921	214.253608084692	67
2	931	217.954574452335	68
2	937	219.744414642569	69
2	945	220.912339838105	70
2	949	220.953085613251	71
2	959	222.008577853774	72
2	963	222.037645791457	73
2	973	223.802766263044	74
2	993	231.074075443924	75
2	1011	234.276392792893	76
2	1015	234.347040430137	77
2	1027	235.340323330738	78
2	1043	239.207216961057	79
3	9	1.344565575783	0
3	23	4.738862826622	1
3	43	9.392642396532	2
3	49	10.871722382641	3
3	65	15.151989986903	4
3	89	20.292205717007	5
3	99	21.98705741	6
3	107	23.28289394883	7
3	111	23.32124800065	8
3	127	26.602050446777	9
3	139	29.487484392378	10
3	151	31.15183486797	11
3	159	32.643960750933	12
3	167	34.031589173439	13
3	177	37.756962829268	14
3	185	39.582730403644	15
3	195	43.706688258533	16
3	203	44.94265426255	17
3	213	47.442563229144	18
3	231	53.163489185408	19
3	237	54.157227194439	20
3	253	57.146432403975	21
3	257	57.172139621719	22
3	277	62.492790196113	23
3	285	63.893630391902	24
3	293	65.743187823839	25
3	303	67.138569380757	26
3	307	67.194751214759	27
3	317	68.477758151856	28
3	321	68.516773204373	29
3	339	73.311938627159	30
3	361	84.743271331187	31
3	365	84.776804838477	32
3	391	92.363307196253	33
3	407	96.628500017105	34
3	411	96.653473065515	35
3	425	99.617054759312	36
3	435	102.613612887198	37
3	451	105.319463624311	38
3	459	107.207976746601	39
3	469	108.930795086825	40
3	477	110.600648564296	41
3	485	111.80903136779	42
3	495	113.178822526448	43
3	509	116.183882379384	44
3	513	116.218181730474	45
3	521	117.380271848386	46
3	531	122.670493112559	47
3	535	122.701913580914	48
3	547	126.14035037845	49
3	555	127.14772451316	50
3	563	130.089355046434	51
3	577	134.043578943428	52
3	585	135.919304484554	53
3	597	140.642518070049	54
3	601	140.672223414953	55
3	621	144.291768991458	56
3	631	145.894428545393	57
3	643	149.294156217134	58
3	667	155.223418229447	59
3	675	156.791057355655	60
3	685	157.865972885382	61
3	735	170.967172042402	62
3	743	171.985849320685	63
3	761	176.743167625758	64
3	777	180.027357602352	65
3	783	181.476957304836	66
3	809	187.726281831932	67
3	823	191.40576065341	68
3	833	192.636460046314	69
3	849	195.393904512069	70
3	867	200.506416644264	71
3	879	202.285429131864	72
3	885	203.545060888175	73
3	905	209.004798995704	74
3	919	214.239169944096	75
3	923	214.283111627847	76
3	943	220.889720516507	77
3	947	220.939873418234	78
3	951	220.966882010101	79
3	961	222.02747871578	80
3	965	222.053480029514	81
3	985	229.221220509921	82
3	1001	232.759378901338	83
3	1009	234.260872321992	84
3	1013	234.330836277434	85
3	1017	234.362674574306	86
3	1025	235.326951522858	87
3	1033	236.60279313611	88
4	11	1.364222249434	0
4	27	4.785508528783	1
4	51	10.888759141109	2
4	69	15.180724201548	3
4	93	20.327973088927	4
4	101	22.037893499114	5
4	113	23.344285876886	6
4	121	24.820788516371	7
4	129	26.622015769974	8
4	143	29.539452510562	9
4	153	31.177858778727	10
4	161	32.662047217342	11
4	179	37.770212366582	12
4	197	43.720051433272	13
4	239	54.17037915196	14
4	247	55.580705743209	15
4	259	57.183556314539	16
4	267	59.053750246944	17
4	295	65.76530331282	18
4	311	67.245023439843	19
4	331	71.427009542314	20
4	341	73.336629286848	21
4	367	84.789631831432	22
4	393	92.375238179331	23
4	413	96.669834970077	24
4	427	99.636820070112	25
4	453	105.334847531526	26
4	463	107.27033766431	27
4	471	108.971162858827	28
4	479	110.61783343569	29
4	489	111.83590185282	30
4	503	114.265951061001	31
4	515	116.247577193466	32
4	537	122.723258717078	33
4	549	126.162575243937	34
4	579	134.068984633561	35
4	605	140.732334172525	36
4	613	141.689328589157	37
4	625	144.333485336951	38
4	633	145.917855947087	39
4	647	149.326249980497	40
4	659	152.088093435892	41
4	677	156.817253702957	42
4	687	157.887701738752	43
4	701	160.281805275482	44
4	729	169.408706972858	45
4	737	170.983394035737	46
4	745	171.998129325006	47
4	753	173.720033799638	48
4	771	178.530198525148	49
4	785	181.489709100333	50
4	793	183.170927341519	51
4	803	186.436083114591	52
4	825	191.423917049191	53
4	835	192.659573215225	54
4	843	194.120429617432	55
4	851	195.409211702121	56
4	871	200.554197540527	57
4	887	203.559899952875	58
4	897	207.461794455879	59
4	907	209.031345681815	60
4	953	220.987255271434	61
4	967	222.077691570817	62
4	987	229.234362306494	63
4	995	231.102086907499	64
4	1003	232.77589213689	65
4	1019	234.386432735535	66
4	1035	236.631606028292	67
4	1045	239.217928565601	68
5	12	1.374222249434	0
5	52	10.898759141109	1
5	70	15.190724201548	2
5	94	20.337973088927	3
5	102	22.047893499114	4
5	114	23.354285876886	5
5	122	24.830788516371	6
5	130	26.632015769974	7
5	154	31.187858778727	8
5	162	32.672047217342	9
5	180	37.780212366582	10
5	198	43.730051433272	11
5	248	55.590705743209	12
5	268	59.063750246944	13
5	296	65.77530331282	14
5	312	67.255023439843	15
5	342	73.346629286848	16
5	368	84.799631831432	17
5	394	92.385238179331	18
5	414	96.679834970077	19
5	428	99.646820070112	20
5	464	107.28033766431	21
5	472	108.981162858827	22
5	480	110.62783343569	23
5	490	111.84590185282	24
5	504	114.275951061001	25
5	516	116.257577193466	26
5	538	122.733258717078	27
5	580	134.078984633561	28
5	606	140.742334172525	29
5	626	144.343485336951	30
5	634	145.927855947087	31
5	648	149.336249980497	32
5	660	152.098093435892	33
5	688	157.897701738752	34
5	702	160.291805275482	35
5	738	170.993394035737	36
5	746	172.008129325006	37
5	754	173.730033799638	38
5	794	183.180927341519	39
5	826	191.433917049191	40
5	844	194.130429617432	41
5	852	195.419211702121	42
5	872	200.564197540527	43
5	888	203.569899952875	44
5	898	207.471794455879	45
5	908	209.041345681815	46
5	954	220.997255271434	47
5	968	222.087691570817	48
5	988	229.244362306494	49
5	996	231.112086907499	50
5	1004	232.78589213689	51
5	1020	234.396432735535	52
5	1036	236.641606028292	53
5	1046	239.227928565601	54

