version 2
run General-0-20230921-23:12:30-8487
attr configname General
attr datetime 20230921-23:12:30
attr experiment General
attr inifile omnetpp.ini
attr iterationvars ""
attr iterationvarsf ""
attr measurement ""
attr network Network1
attr processid 8487
attr repetition 0
attr replication #0
attr resultdir results
attr runnumber 0
attr seedset 0
param Network1.node[*].transmissionTime "uniform(1s, 2s)"
param Network1.node[*].delayTime "uniform(0.01s, 0.2s)"
param Network1.node[*].processingTime exponential(0.01s)
param Network1.node[*].lossProbability 0.2

vector 0 Network1.node[0] txVector ETV
vector 1 Network1.node[1] txVector ETV
vector 2 Network1.node[3] txVector ETV
vector 3 Network1.node[4] txVector ETV
vector 4 Network1.node[5] rxVector ETV
vector 5 Network1.node[2] txVector ETV
0	1	0.114274565438	0
0	9	1.707119181827	1
0	17	3.144706391804	2
0	23	4.624683563206	3
0	25	6.272855439763	4
0	29	7.641096977125	5
0	37	9.511109122382	6
0	47	11.23174177397	7
0	51	12.968659951891	8
0	61	13.987449749912	9
0	65	15.424481702576	10
0	69	17.394290771176	11
0	81	18.604673332841	12
0	83	20.239732209899	13
0	91	22.235031775505	14
0	95	23.345406914669	15
0	97	25.123752396394	16
0	101	27.073323447796	17
0	105	28.170424718948	18
0	113	30.142369717898	19
0	117	31.181557506861	20
0	125	32.541001975842	21
0	137	34.233474095192	22
0	139	36.075816174343	23
0	147	37.722990312919	24
0	157	39.551930341244	25
0	165	41.128087677134	26
0	169	42.577285409046	27
0	181	43.874722360706	28
0	193	45.407928612389	29
0	197	47.025944039299	30
0	205	48.128807399263	31
0	211	49.780910673625	32
0	221	51.216775592956	33
0	229	53.215622595818	34
0	239	54.994673613998	35
0	249	56.414748981669	36
0	251	58.164748229393	37
0	257	59.504152045426	38
0	267	60.675138638196	39
0	275	62.175164931993	40
0	285	63.710797729277	41
0	293	65.655170117811	42
0	301	66.711588452411	43
0	311	67.736267181187	44
0	319	68.953164162188	45
0	331	70.857589139444	46
0	339	72.810380797674	47
0	347	74.124073195112	48
0	355	75.498243173658	49
0	359	77.173090518759	50
0	367	78.889950198661	51
0	371	80.014783259555	52
0	379	81.780108511987	53
0	385	82.825723148024	54
0	387	83.888761440598	55
0	395	85.44441067784	56
0	403	86.508365943636	57
0	415	87.963534760828	58
0	423	89.581411452805	59
0	429	91.334981057401	60
0	439	92.763204884323	61
0	451	94.106810383805	62
0	455	95.160237561286	63
0	461	96.693703237528	64
0	473	98.371115061993	65
0	481	99.426489378864	66
0	489	101.279124302397	67
0	495	102.976121544213	68
0	497	104.349934683721	69
0	499	105.937534320475	70
0	503	107.210356217417	71
0	509	108.989548188242	72
0	521	110.459046493591	73
0	523	111.995223993044	74
0	527	113.676616505095	75
0	531	115.002301271613	76
0	533	116.189432164495	77
0	539	118.093416116041	78
0	549	119.552020072545	79
0	551	121.308798718806	80
0	555	122.944859775323	81
0	563	123.954626207314	82
0	565	125.411849661339	83
0	573	127.363724136101	84
0	583	128.458182051852	85
0	589	129.765168104395	86
0	591	131.297017286373	87
0	599	133.142374970792	88
0	601	134.596537369844	89
0	603	135.923238256555	90
0	607	137.155982388724	91
0	609	138.678352921345	92
0	617	140.191427787841	93
0	621	141.32248302254	94
0	635	143.30412270276	95
0	645	145.105958852993	96
0	655	146.603636831587	97
0	657	148.001170329826	98
0	671	149.739852988005	99
0	677	151.229362309987	100
0	685	153.146089324339	101
0	689	154.894877576812	102
0	697	156.398811186275	103
0	707	158.341394788895	104
0	711	160.335795576994	105
0	717	161.947543994601	106
0	725	163.325870137739	107
0	727	164.600693708363	108
0	737	166.192924126362	109
0	753	167.441337586691	110
0	755	169.330570912066	111
0	763	170.84302257242	112
0	771	172.047946254568	113
0	773	173.904249232573	114
0	785	175.53930602766	115
0	795	176.881917009907	116
0	799	178.553874148134	117
0	807	179.780958119159	118
0	813	181.477440547741	119
0	821	183.268280711102	120
0	829	184.729287539686	121
0	843	185.862749009005	122
0	845	186.898782831229	123
0	855	188.07355483862	124
0	863	189.981430429578	125
0	869	191.892424420532	126
0	879	193.367092405059	127
0	889	194.370191948334	128
0	891	195.570556270968	129
0	905	197.496258419551	130
0	907	198.850764479101	131
0	917	200.50778425516	132
0	925	202.445419477377	133
0	929	204.143667959221	134
0	931	205.908938547908	135
0	939	206.930627271146	136
0	947	208.047947754231	137
0	953	209.644158872389	138
0	959	211.409153316715	139
0	965	212.499386298782	140
0	971	214.484319604081	141
0	979	215.964073477858	142
0	985	217.235325554698	143
0	991	218.580043676854	144
0	995	220.011803802182	145
0	1003	221.637162000719	146
0	1011	223.042197611263	147
0	1019	224.573057737747	148
0	1027	226.440224894635	149
0	1029	228.432298741383	150
0	1031	229.78752394564	151
0	1039	231.635864097472	152
0	1043	232.721175024366	153
0	1051	233.746119753771	154
0	1059	235.305802153038	155
0	1063	236.73274556602	156
0	1071	238.514225166604	157
1	3	0.142870607559	0
1	11	1.739354426047	1
1	19	3.159695111894	2
1	27	6.31435713905	3
1	31	7.689549195816	4
1	39	9.529832334332	5
1	49	11.244182258877	6
1	53	12.988273761282	7
1	63	14.009410827907	8
1	67	15.445070043891	9
1	71	17.40567105806	10
1	85	20.258451368435	11
1	93	22.255712497476	12
1	99	25.144615090203	13
1	103	27.101521636989	14
1	107	28.201477931956	15
1	115	30.155693820308	16
1	119	31.198113969705	17
1	127	32.559362951162	18
1	141	36.104228999058	19
1	149	37.733037378324	20
1	159	39.570896249952	21
1	167	41.176517742966	22
1	171	42.604094631091	23
1	183	43.887342933123	24
1	195	45.42352822309	25
1	199	47.036913266845	26
1	207	48.144453504274	27
1	213	49.813159820197	28
1	223	51.228394293823	29
1	231	53.245642460773	30
1	241	55.00519273952	31
1	253	58.181472834561	32
1	259	59.520378018866	33
1	269	60.685655467254	34
1	277	62.194078717762	35
1	287	63.734251203609	36
1	295	65.671861255048	37
1	303	66.722284629122	38
1	313	67.757146225523	39
1	321	68.973542662943	40
1	333	70.879220272278	41
1	341	72.851951753088	42
1	349	74.14030148821	43
1	357	75.511485164793	44
1	361	77.188133318092	45
1	369	78.912754442201	46
1	373	80.038592890512	47
1	381	81.79245507048	48
1	389	83.898854270842	49
1	397	85.461058755336	50
1	405	86.53947483138	51
1	417	87.973668013276	52
1	425	89.591452016018	53
1	431	91.348517023154	54
1	441	92.788757827927	55
1	453	94.129741862393	56
1	457	95.173869983475	57
1	463	96.720332895335	58
1	475	98.384704675177	59
1	483	99.442171083701	60
1	491	101.304206454713	61
1	501	105.95216822075	62
1	505	107.246280703505	63
1	511	109.020979185246	64
1	525	112.008475701749	65
1	529	113.688206625263	66
1	535	116.207280534691	67
1	541	118.116295735792	68
1	553	121.321543354026	69
1	557	122.958545604719	70
1	567	125.430424012365	71
1	575	127.38376464784	72
1	585	128.46945778759	73
1	593	131.314701912147	74
1	605	135.942769481938	75
1	611	138.698846343004	76
1	619	140.201548880292	77
1	623	141.335288781802	78
1	637	143.314853219332	79
1	647	145.121542120886	80
1	659	148.01713204874	81
1	673	149.772065129837	82
1	679	151.24057062395	83
1	687	153.158804882256	84
1	691	154.908390789627	85
1	699	156.418862342761	86
1	709	158.357406335359	87
1	713	160.356940159311	88
1	719	161.9585979559	89
1	729	164.633400809437	90
1	739	166.209973619576	91
1	757	169.34771725394	92
1	765	170.857203489009	93
1	775	173.917810890389	94
1	787	175.559040753096	95
1	797	176.921649093302	96
1	801	178.569941272226	97
1	809	179.80776094316	98
1	815	181.488463565551	99
1	823	183.295815192285	100
1	831	184.778702126532	101
1	847	186.913711618913	102
1	857	188.085301116585	103
1	865	190.012508233162	104
1	871	191.904462274354	105
1	881	193.386188112108	106
1	893	195.584256062766	107
1	909	198.871328889043	108
1	919	200.528932923701	109
1	927	202.459506653919	110
1	933	205.92041486674	111
1	941	206.94175900447	112
1	949	208.080185582389	113
1	955	209.656254517246	114
1	961	211.428807674712	115
1	967	212.532075989648	116
1	973	214.501420307538	117
1	981	215.979245147129	118
1	987	217.257835041305	119
1	993	218.599576536166	120
1	997	220.046336860597	121
1	1005	221.652360220168	122
1	1013	223.053088470838	123
1	1021	224.58335398527	124
1	1033	229.812250074265	125
1	1041	231.648366630276	126
1	1045	232.732733216227	127
1	1053	233.770967894511	128
1	1061	235.319393109866	129
1	1065	236.756649459292	130
1	1073	238.535239127387	131
2	5	0.160742618959	0
2	21	3.170431965449	1
2	33	7.715689216565	2
2	41	9.568776539112	3
2	55	13.000788180603	4
2	75	17.443475951593	5
2	131	32.587461933618	6
2	153	37.774755787383	7
2	173	42.625347451259	8
2	177	42.687696514053	9
2	185	43.902856893024	10
2	189	43.932887212266	11
2	201	47.055850557628	12
2	217	49.841916715228	13
2	235	53.274399138246	14
2	245	55.064915638531	15
2	255	58.193704226642	16
2	261	59.53461458988	17
2	279	62.237458061101	18
2	289	63.779395990414	19
2	305	66.738796936441	20
2	323	69.001324096311	21
2	327	69.024520396379	22
2	335	70.904766901656	23
2	353	74.182305460159	24
2	363	77.216485952121	25
2	375	80.051044871438	26
2	393	83.946389462721	27
2	399	85.486548872128	28
2	407	86.577841233314	29
2	411	86.625237272811	30
2	419	88.003495502322	31
2	427	89.606049929196	32
2	433	91.365677476334	33
2	445	92.828732033808	34
2	467	96.763485670715	35
2	477	98.400839066073	36
2	485	99.45416963908	37
2	513	109.039595860164	38
2	517	109.06186884892	39
2	537	116.241420698996	40
2	543	118.127276931018	41
2	559	122.974673059168	42
2	577	127.394412304768	43
2	587	128.483869335697	44
2	595	131.32575123962	45
2	613	138.711749077155	46
2	627	141.405403198969	47
2	631	141.445802558231	48
2	641	143.355764585535	49
2	649	145.143803443008	50
2	663	148.058813013871	51
2	667	148.103636746584	52
2	703	156.460088181217	53
2	733	164.665243503424	54
2	743	166.240671569362	55
2	747	166.296287984097	56
2	777	173.932473860653	57
2	781	173.961577341417	58
2	789	175.603734691484	59
2	811	179.828219196088	60
2	817	181.54572751752	61
2	835	184.833977793384	62
2	839	184.872980113037	63
2	849	186.931984878149	64
2	859	188.099390291877	65
2	867	190.023126394648	66
2	875	191.959856170686	67
2	883	193.400940206496	68
2	897	195.629729085912	69
2	901	195.663283457304	70
2	913	198.902475681615	71
2	921	200.576324408481	72
2	943	206.979321135245	73
2	963	211.441572551553	74
2	969	212.548436494359	75
2	975	214.516931687021	76
2	989	217.272637959443	77
2	999	220.069295638762	78
2	1009	221.698240993911	79
2	1015	223.073161197722	80
2	1023	224.621034985847	81
2	1035	229.82692160653	82
2	1047	232.743411775007	83
3	7	0.180512683223	0
3	15	1.778226948631	1
3	35	7.740854576305	2
3	45	9.59296880424	3
3	59	13.055544791584	4
3	79	17.474611012727	5
3	89	20.294499424986	6
3	111	28.265096673667	7
3	123	31.246980097025	8
3	135	32.612165240582	9
3	145	36.134300477442	10
3	155	37.790434828918	11
3	163	39.631605653821	12
3	179	42.710615606741	13
3	191	43.946283859592	14
3	203	47.066192591812	15
3	219	49.856260171787	16
3	227	51.258336787191	17
3	237	53.296353523909	18
3	247	55.079378166736	19
3	265	59.564309545103	20
3	273	60.711481826007	21
3	283	62.265052698459	22
3	291	63.792331066933	23
3	299	65.713394231801	24
3	309	66.779030167153	25
3	317	67.792826020408	26
3	329	69.056178033188	27
3	337	70.927891981586	28
3	345	72.873880476952	29
3	365	77.228050709825	30
3	377	80.069078789065	31
3	401	85.500676170795	32
3	421	88.053574998871	33
3	437	91.444972712421	34
3	449	92.880027428368	35
3	471	96.799429145803	36
3	479	98.42233647995	37
3	487	99.465073011521	38
3	519	109.079997832532	39
3	547	118.167669267787	40
3	561	123.015403811396	41
3	571	125.469041748187	42
3	581	127.439250412285	43
3	597	131.336787947986	44
3	615	138.730427695854	45
3	633	141.4564778998	46
3	643	143.373048361265	47
3	653	145.187370891109	48
3	669	148.116505837538	49
3	683	151.268439126318	50
3	695	154.960075069551	51
3	723	162.001367616738	52
3	751	166.321059648838	53
3	761	169.408078863453	54
3	769	170.892997784339	55
3	783	173.973245298998	56
3	793	175.628386064069	57
3	805	178.623453002043	58
3	827	183.346789657083	59
3	841	184.883419385378	60
3	853	186.962845438831	61
3	861	188.110185993428	62
3	877	191.97348664223	63
3	887	193.460054785525	64
3	903	195.708514970716	65
3	915	198.916812676319	66
3	937	205.949773551844	67
3	945	207.008169781387	68
3	977	214.527336266578	69
3	1001	220.083096829075	70
3	1017	223.105169366466	71
3	1025	224.638462223344	72
3	1037	229.840594288205	73
3	1057	233.815951482862	74
3	1069	236.801001683766	75
4	8	0.190512683223	0
4	16	1.788226948631	1
4	46	9.60296880424	2
4	60	13.065544791584	3
4	80	17.484611012727	4
4	90	20.304499424986	5
4	124	31.256980097025	6
4	136	32.622165240582	7
4	156	37.800434828918	8
4	164	39.641605653821	9
4	180	42.720615606741	10
4	192	43.956283859592	11
4	204	47.076192591812	12
4	220	49.866260171787	13
4	238	53.306353523909	14
4	248	55.089378166736	15
4	274	60.721481826007	16
4	284	62.275052698459	17
4	300	65.723394231801	18
4	310	66.789030167153	19
4	318	67.802826020408	20
4	330	69.066178033188	21
4	338	70.937891981586	22
4	346	72.883880476952	23
4	366	77.238050709825	24
4	378	80.079078789065	25
4	402	85.510676170795	26
4	422	88.063574998871	27
4	438	91.454972712421	28
4	450	92.890027428368	29
4	472	96.809429145803	30
4	480	98.43233647995	31
4	488	99.475073011521	32
4	548	118.177669267787	33
4	562	123.025403811396	34
4	616	138.740427695854	35
4	634	141.4664778998	36
4	644	143.383048361265	37
4	654	145.197370891109	38
4	684	151.278439126318	39
4	696	154.970075069551	40
4	724	162.011367616738	41
4	752	166.331059648838	42
4	762	169.418078863453	43
4	770	170.902997784339	44
4	784	173.983245298998	45
4	794	175.638386064069	46
4	806	178.633453002043	47
4	828	183.356789657083	48
4	854	186.972845438831	49
4	862	188.120185993428	50
4	878	191.98348664223	51
4	888	193.470054785525	52
4	916	198.926812676319	53
4	938	205.959773551844	54
4	946	207.018169781387	55
4	978	214.537336266578	56
4	1002	220.093096829075	57
4	1018	223.115169366466	58
4	1026	224.648462223344	59
4	1038	229.850594288205	60
4	1058	233.825951482862	61
4	1070	236.811001683766	62
5	13	1.752537987455	0
5	43	9.579896000718	1
5	57	13.039567330816	2
5	73	17.425031673658	3
5	77	17.463534661645	4
5	87	20.274730784245	5
5	109	28.249097204801	6
5	121	31.211940979194	7
5	129	32.576475430534	8
5	133	32.598329638441	9
5	143	36.116252503444	10
5	151	37.751468208645	11
5	161	39.591082837252	12
5	175	42.644052809522	13
5	187	43.919297940107	14
5	209	48.155976440527	15
5	215	49.830860588792	16
5	225	51.238777122952	17
5	233	53.26406127039	18
5	243	55.052292345439	19
5	263	59.553985977057	20
5	271	60.698372147957	21
5	281	62.252536712328	22
5	297	65.693779836085	23
5	307	66.756488134452	24
5	315	67.768622185852	25
5	325	69.01132464983	26
5	343	72.86221173054	27
5	351	74.152365068146	28
5	383	81.80521034985	29
5	391	83.924232557987	30
5	409	86.59449965818	31
5	413	86.653851589241	32
5	435	91.41515380901	33
5	443	92.81363212547	34
5	447	92.843961710345	35
5	459	95.184698606204	36
5	465	96.735789472483	37
5	469	96.786470127071	38
5	493	101.325643360919	39
5	507	107.272364881996	40
5	515	109.051508820623	41
5	545	118.148989567967	42
5	569	125.442139398639	43
5	579	127.410343120741	44
5	625	141.391691581761	45
5	629	141.425585374757	46
5	639	143.335715252444	47
5	651	145.159730017187	48
5	661	148.044004231628	49
5	665	148.092346361552	50
5	675	149.793769487137	51
5	681	151.253751169402	52
5	693	154.936666052305	53
5	701	156.436194596148	54
5	705	156.471699607005	55
5	715	160.372344186287	56
5	721	161.991172723808	57
5	731	164.652073729625	58
5	735	164.710334138934	59
5	741	166.223227786748	60
5	745	166.260496852789	61
5	749	166.308134142826	62
5	759	169.369127687283	63
5	767	170.87515221737	64
5	779	173.950639787541	65
5	791	175.614964317153	66
5	803	178.588826559349	67
5	819	181.567567794883	68
5	825	183.315578112515	69
5	833	184.798422616217	70
5	837	184.845266579844	71
5	851	186.94373398075	72
5	873	191.937296214698	73
5	885	193.446079994726	74
5	895	195.597596813597	75
5	899	195.644316598938	76
5	911	198.892092793637	77
5	923	200.617774384008	78
5	935	205.937796234165	79
5	951	208.0949713481	80
5	957	209.686064070207	81
5	983	215.989851890131	82
5	1007	221.674875309738	83
5	1049	232.758024032783	84
5	1055	233.803725094342	85
5	1067	236.768397679292	86

