version 2
run General-1-20231008-07:03:17-16741
attr configname General
attr datetime 20231008-07:03:17
attr experiment General
attr inifile omnetpp.ini
attr iterationvars ""
attr iterationvarsf ""
attr measurement ""
attr network Network2
attr processid 16741
attr repetition 1
attr replication #1
attr resultdir results
attr runnumber 1
attr seedset 1
param Network2.node[*].transmissionTime "uniform(1s, 2s)"
param Network2.node[*].delayTime "uniform(0.01s, 0.2s)"
param Network2.node[*].processingTime exponential(0.01s)
param Network2.node[*].lossProbability 0.5

vector 0 Network2.node[0] txVector ETV
vector 1 Network2.node[1] txVector ETV
vector 2 Network2.node[6] txVector ETV
vector 3 Network2.node[3] txVector ETV
vector 4 Network2.node[2] txVector ETV
vector 5 Network2.node[4] txVector ETV
vector 6 Network2.node[5] rxVector ETV
0	1	0.089234179703	0
0	11	2.086418987836	1
0	13	3.482999713977	2
0	15	4.870910454194	3
0	17	6.540656494561	4
0	36	8.476195567173	5
0	59	9.616582504126	6
0	61	11.287110545325	7
0	63	12.880176062115	8
0	86	14.551830153797	9
0	88	16.341109485949	10
0	90	17.444335498034	11
0	92	18.892229022576	12
0	94	20.800824527048	13
0	114	22.094438670321	14
0	129	23.241167242524	15
0	152	25.006652349724	16
0	154	26.93416092836	17
0	173	28.281926787576	18
0	192	30.163268616541	19
0	211	32.066648132984	20
0	213	33.534040818341	21
0	229	34.803041868029	22
0	243	36.03340467217	23
0	245	37.140769980499	24
0	247	38.650580258691	25
0	270	39.752715491108	26
0	280	40.985689764493	27
0	282	42.541930001811	28
0	284	43.678385228966	29
0	286	44.738302923855	30
0	305	45.859646374941	31
0	307	47.134291528141	32
0	309	48.208260526065	33
0	324	49.360397683339	34
0	347	50.980353395337	35
0	363	52.48914213397	36
0	370	53.584561378345	37
0	372	55.389315943815	38
0	395	56.582750224624	39
0	418	58.311307621304	40
0	420	60.230041056987	41
0	427	61.62491667096	42
0	429	62.70343664044	43
0	443	64.396621838561	44
0	445	65.899697748362	45
0	468	67.78538760927	46
0	483	69.275641131564	47
0	506	71.090741188847	48
0	508	73.064524731482	49
0	510	74.669240832212	50
0	512	76.498086641891	51
0	514	78.072798149776	52
0	516	79.700874352012	53
0	539	80.986450629192	54
0	541	82.009619359509	55
0	543	83.541287466069	56
0	557	84.671482184087	57
0	580	85.891348482226	58
0	582	87.41036011104	59
0	584	89.181244025589	60
0	586	90.750102021615	61
0	609	92.215811897418	62
0	611	93.738098465488	63
0	613	95.641977728228	64
0	615	97.117130465689	65
0	629	98.964152748347	66
0	631	100.444430931355	67
0	651	101.777715236764	68
0	653	102.995214455645	69
0	676	104.195423450903	70
0	678	106.040133060305	71
0	680	107.578573653125	72
0	703	109.445181924267	73
0	705	110.749060351983	74
0	707	112.06281573337	75
0	730	113.289277347154	76
0	732	114.925881749834	77
0	755	116.919794768677	78
0	771	118.399857695331	79
0	781	120.04661160952	80
0	788	121.771591730533	81
0	790	123.365024185391	82
0	792	125.208864617046	83
0	811	126.589880741784	84
0	813	127.672736203415	85
0	815	129.1784624242	86
0	817	130.872869276559	87
0	819	132.329847183894	88
0	821	133.691121896147	89
0	844	135.507129401551	90
0	867	136.525462040329	91
0	890	137.611718584668	92
0	913	139.517120618491	93
0	915	141.51688973664	94
0	917	143.090621642421	95
0	919	144.729680616527	96
0	921	146.219380225872	97
0	944	148.10875497421	98
0	946	149.542347304409	99
0	948	151.054640001969	100
0	971	152.993526480047	101
0	973	154.491509787392	102
0	975	155.824949051606	103
0	998	157.719645660257	104
0	1000	158.947545952516	105
0	1002	160.035028164627	106
0	1004	161.262337899188	107
0	1006	162.576714520695	108
0	1021	163.751480396724	109
0	1023	165.229930741367	110
0	1025	166.629084139251	111
0	1027	167.904554326673	112
0	1050	168.956195561568	113
0	1057	169.988621886707	114
0	1059	171.868277881415	115
0	1078	173.18812679232	116
0	1093	174.541132876304	117
0	1095	175.854147515613	118
0	1110	177.848085398906	119
0	1112	179.16058678192	120
0	1135	180.665105950906	121
0	1142	181.799712103446	122
0	1165	183.659029912557	123
0	1167	184.908899576058	124
0	1187	186.524662934597	125
0	1189	187.707257223203	126
0	1191	189.248549801418	127
0	1193	190.521248669018	128
0	1195	192.01451693627	129
0	1197	193.748459927625	130
0	1199	194.933215348636	131
0	1219	196.853912693103	132
0	1221	198.33865647775	133
0	1228	199.956554924025	134
0	1230	201.082765028001	135
0	1249	203.058808579463	136
0	1251	204.962039689887	137
0	1274	206.843468187963	138
0	1276	208.035718208532	139
0	1278	209.430815077507	140
0	1280	210.730896122175	141
0	1282	211.8109997717	142
0	1305	213.715630773575	143
0	1307	215.316010606828	144
0	1330	217.100035428655	145
0	1353	218.859231475628	146
0	1355	220.274835579683	147
0	1378	221.366393836102	148
0	1380	223.063701860494	149
0	1399	224.066814719587	150
0	1401	225.268121931124	151
0	1403	226.390276005147	152
0	1410	228.01994742116	153
0	1412	229.464064528589	154
0	1422	231.292199890251	155
0	1442	232.759445710695	156
0	1444	234.668757700949	157
0	1464	236.27423670062	158
0	1487	238.122176088748	159
0	1489	239.982140653889	160
1	3	0.126198958082	0
1	3	0.126198958082	1
1	3	0.126198958082	2
1	3	0.126198958082	3
1	19	6.56938473123	4
1	19	6.56938473123	5
1	19	6.56938473123	6
1	19	6.56938473123	7
1	38	8.488403299342	8
1	38	8.488403299342	9
1	38	8.488403299342	10
1	38	8.488403299342	11
1	65	12.895482738576	12
1	65	12.895482738576	13
1	65	12.895482738576	14
1	65	12.895482738576	15
1	96	20.814218145927	16
1	96	20.814218145927	17
1	96	20.814218145927	18
1	96	20.814218145927	19
1	116	22.113337727728	20
1	116	22.113337727728	21
1	116	22.113337727728	22
1	116	22.113337727728	23
1	131	23.251631302722	24
1	131	23.251631302722	25
1	131	23.251631302722	26
1	131	23.251631302722	27
1	156	26.95805640895	28
1	156	26.95805640895	29
1	156	26.95805640895	30
1	156	26.95805640895	31
1	175	28.292044165713	32
1	175	28.292044165713	33
1	175	28.292044165713	34
1	175	28.292044165713	35
1	194	30.181794254945	36
1	194	30.181794254945	37
1	194	30.181794254945	38
1	194	30.181794254945	39
1	215	33.56186044981	40
1	215	33.56186044981	41
1	215	33.56186044981	42
1	215	33.56186044981	43
1	231	34.820139666171	44
1	231	34.820139666171	45
1	231	34.820139666171	46
1	231	34.820139666171	47
1	249	38.663987119372	48
1	249	38.663987119372	49
1	249	38.663987119372	50
1	249	38.663987119372	51
1	272	39.77917159382	52
1	272	39.77917159382	53
1	272	39.77917159382	54
1	272	39.77917159382	55
1	288	44.74875867193	56
1	288	44.74875867193	57
1	288	44.74875867193	58
1	288	44.74875867193	59
1	311	48.220023346733	60
1	311	48.220023346733	61
1	311	48.220023346733	62
1	311	48.220023346733	63
1	326	49.38805748351	64
1	326	49.38805748351	65
1	326	49.38805748351	66
1	326	49.38805748351	67
1	349	50.992782398144	68
1	349	50.992782398144	69
1	349	50.992782398144	70
1	349	50.992782398144	71
1	365	52.500911958457	72
1	365	52.500911958457	73
1	365	52.500911958457	74
1	365	52.500911958457	75
1	374	55.409517491984	76
1	374	55.409517491984	77
1	374	55.409517491984	78
1	374	55.409517491984	79
1	397	56.606869850119	80
1	397	56.606869850119	81
1	397	56.606869850119	82
1	397	56.606869850119	83
1	422	60.273080638778	84
1	422	60.273080638778	85
1	422	60.273080638778	86
1	422	60.273080638778	87
1	431	62.713564582077	88
1	431	62.713564582077	89
1	431	62.713564582077	90
1	431	62.713564582077	91
1	447	65.917341545446	92
1	447	65.917341545446	93
1	447	65.917341545446	94
1	447	65.917341545446	95
1	470	67.804528298997	96
1	470	67.804528298997	97
1	470	67.804528298997	98
1	470	67.804528298997	99
1	485	69.293491502936	100
1	485	69.293491502936	101
1	485	69.293491502936	102
1	485	69.293491502936	103
1	518	79.719713394276	104
1	518	79.719713394276	105
1	518	79.719713394276	106
1	518	79.719713394276	107
1	545	83.559530484839	108
1	545	83.559530484839	109
1	545	83.559530484839	110
1	545	83.559530484839	111
1	559	84.681806963732	112
1	559	84.681806963732	113
1	559	84.681806963732	114
1	559	84.681806963732	115
1	588	90.764298000304	116
1	588	90.764298000304	117
1	588	90.764298000304	118
1	588	90.764298000304	119
1	617	97.145380282885	120
1	617	97.145380282885	121
1	617	97.145380282885	122
1	617	97.145380282885	123
1	633	100.45452045771	124
1	633	100.45452045771	125
1	633	100.45452045771	126
1	633	100.45452045771	127
1	655	103.016622560031	128
1	655	103.016622560031	129
1	655	103.016622560031	130
1	655	103.016622560031	131
1	682	107.618492249058	132
1	682	107.618492249058	133
1	682	107.618492249058	134
1	682	107.618492249058	135
1	709	112.083973355266	136
1	709	112.083973355266	137
1	709	112.083973355266	138
1	709	112.083973355266	139
1	734	114.943779890363	140
1	734	114.943779890363	141
1	734	114.943779890363	142
1	734	114.943779890363	143
1	757	116.936480765636	144
1	757	116.936480765636	145
1	757	116.936480765636	146
1	757	116.936480765636	147
1	773	118.43525769264	148
1	773	118.43525769264	149
1	773	118.43525769264	150
1	773	118.43525769264	151
1	783	120.060219462187	152
1	783	120.060219462187	153
1	783	120.060219462187	154
1	783	120.060219462187	155
1	794	125.232721894727	156
1	794	125.232721894727	157
1	794	125.232721894727	158
1	794	125.232721894727	159
1	823	133.701590836723	160
1	823	133.701590836723	161
1	823	133.701590836723	162
1	823	133.701590836723	163
1	846	135.517819955213	164
1	846	135.517819955213	165
1	846	135.517819955213	166
1	846	135.517819955213	167
1	869	136.583080945684	168
1	869	136.583080945684	169
1	869	136.583080945684	170
1	869	136.583080945684	171
1	892	137.637613317051	172
1	892	137.637613317051	173
1	892	137.637613317051	174
1	892	137.637613317051	175
1	923	146.250135539109	176
1	923	146.250135539109	177
1	923	146.250135539109	178
1	923	146.250135539109	179
1	950	151.064954382379	180
1	950	151.064954382379	181
1	950	151.064954382379	182
1	950	151.064954382379	183
1	977	155.837236682802	184
1	977	155.837236682802	185
1	977	155.837236682802	186
1	977	155.837236682802	187
1	1008	162.596056373773	188
1	1008	162.596056373773	189
1	1008	162.596056373773	190
1	1008	162.596056373773	191
1	1029	167.916047620451	192
1	1029	167.916047620451	193
1	1029	167.916047620451	194
1	1029	167.916047620451	195
1	1052	168.967178054598	196
1	1052	168.967178054598	197
1	1052	168.967178054598	198
1	1052	168.967178054598	199
1	1061	171.887553420803	200
1	1061	171.887553420803	201
1	1061	171.887553420803	202
1	1061	171.887553420803	203
1	1080	173.204900944238	204
1	1080	173.204900944238	205
1	1080	173.204900944238	206
1	1080	173.204900944238	207
1	1097	175.865960027023	208
1	1097	175.865960027023	209
1	1097	175.865960027023	210
1	1097	175.865960027023	211
1	1114	179.181790730114	212
1	1114	179.181790730114	213
1	1114	179.181790730114	214
1	1114	179.181790730114	215
1	1137	180.691592886899	216
1	1137	180.691592886899	217
1	1137	180.691592886899	218
1	1137	180.691592886899	219
1	1144	181.827455203569	220
1	1144	181.827455203569	221
1	1144	181.827455203569	222
1	1144	181.827455203569	223
1	1169	184.921936789624	224
1	1169	184.921936789624	225
1	1169	184.921936789624	226
1	1169	184.921936789624	227
1	1201	194.954005297498	228
1	1201	194.954005297498	229
1	1201	194.954005297498	230
1	1201	194.954005297498	231
1	1223	198.349718100087	232
1	1223	198.349718100087	233
1	1223	198.349718100087	234
1	1223	198.349718100087	235
1	1232	201.094506581682	236
1	1232	201.094506581682	237
1	1232	201.094506581682	238
1	1232	201.094506581682	239
1	1253	204.988803790387	240
1	1253	204.988803790387	241
1	1253	204.988803790387	242
1	1253	204.988803790387	243
1	1284	211.825622573803	244
1	1284	211.825622573803	245
1	1284	211.825622573803	246
1	1284	211.825622573803	247
1	1309	215.341538186592	248
1	1309	215.341538186592	249
1	1309	215.341538186592	250
1	1309	215.341538186592	251
1	1332	217.122869745213	252
1	1332	217.122869745213	253
1	1332	217.122869745213	254
1	1332	217.122869745213	255
1	1357	220.287864188751	256
1	1357	220.287864188751	257
1	1357	220.287864188751	258
1	1357	220.287864188751	259
1	1382	223.088613816905	260
1	1382	223.088613816905	261
1	1382	223.088613816905	262
1	1382	223.088613816905	263
1	1405	226.430224339157	264
1	1405	226.430224339157	265
1	1405	226.430224339157	266
1	1405	226.430224339157	267
1	1414	229.479621854615	268
1	1414	229.479621854615	269
1	1414	229.479621854615	270
1	1414	229.479621854615	271
1	1424	231.305979834613	272
1	1424	231.305979834613	273
1	1424	231.305979834613	274
1	1424	231.305979834613	275
1	1446	234.693315199377	276
1	1446	234.693315199377	277
1	1446	234.693315199377	278
1	1446	234.693315199377	279
1	1466	236.287135400481	280
1	1466	236.287135400481	281
1	1466	236.287135400481	282
1	1466	236.287135400481	283
1	1491	239.993030713459	284
1	1491	239.993030713459	285
1	1491	239.993030713459	286
1	1491	239.993030713459	287
2	8	0.137786054054	0
2	8	0.137786054054	1
2	33	6.633957451438	2
2	33	6.633957451438	3
2	52	8.528291348505	4
2	52	8.528291348505	5
2	83	12.955002320228	6
2	83	12.955002320228	7
2	122	22.128683038062	8
2	122	22.128683038062	9
2	136	23.261933847172	10
2	136	23.261933847172	11
2	162	26.97849053308	12
2	162	26.97849053308	13
2	189	28.351917897342	14
2	189	28.351917897342	15
2	208	30.233303371482	16
2	208	30.233303371482	17
2	237	34.837455675059	18
2	237	34.837455675059	19
2	254	38.677248837851	20
2	254	38.677248837851	21
2	277	39.803109738255	22
2	277	39.803109738255	23
2	294	44.771241018747	24
2	294	44.771241018747	25
2	316	48.230536470042	26
2	316	48.230536470042	27
2	332	49.398783428558	28
2	332	49.398783428558	29
2	389	55.461170003183	30
2	389	55.461170003183	31
2	402	56.619145261154	32
2	402	56.619145261154	33
2	436	62.727632019637	34
2	436	62.727632019637	35
2	457	65.950002172602	36
2	457	65.950002172602	37
2	490	69.303984842408	38
2	490	69.303984842408	39
2	533	79.745291333535	40
2	533	79.745291333535	41
2	551	83.581072408464	42
2	551	83.581072408464	43
2	564	84.694956924535	44
2	564	84.694956924535	45
2	593	90.775127752895	46
2	593	90.775127752895	47
2	622	97.161674222221	48
2	622	97.161674222221	49
2	673	103.078259050387	50
2	673	103.078259050387	51
2	696	107.653517401577	52
2	696	107.653517401577	53
2	715	112.109240393558	54
2	715	112.109240393558	55
2	744	114.980604437722	56
2	744	114.980604437722	57
2	778	118.452360956455	58
2	778	118.452360956455	59
2	803	125.25612100251	60
2	803	125.25612100251	61
2	829	133.724898756568	62
2	829	133.724898756568	63
2	864	135.569062179448	64
2	864	135.569062179448	65
2	878	136.607947590029	66
2	878	136.607947590029	67
2	902	137.67226886305	68
2	902	137.67226886305	69
2	929	146.263854690459	70
2	929	146.263854690459	71
2	961	151.095227027548	72
2	961	151.095227027548	73
2	982	155.852796216615	74
2	982	155.852796216615	75
2	1047	167.969694936773	76
2	1047	167.969694936773	77
2	1066	171.899733632265	78
2	1066	171.899733632265	79
2	1090	173.235183602669	80
2	1090	173.235183602669	81
2	1102	175.883381219479	82
2	1102	175.883381219479	83
2	1124	179.213504254734	84
2	1124	179.213504254734	85
2	1149	181.840308867459	86
2	1149	181.840308867459	87
2	1237	201.109685116031	88
2	1237	201.109685116031	89
2	1265	205.025151827629	90
2	1265	205.025151827629	91
2	1289	211.837040066089	92
2	1289	211.837040066089	93
2	1319	215.367008279106	94
2	1319	215.367008279106	95
2	1337	217.17307451013	96
2	1337	217.17307451013	97
2	1362	220.30534685807	98
2	1362	220.30534685807	99
2	1387	223.099900872468	100
2	1387	223.099900872468	101
2	1419	229.492659860522	102
2	1419	229.492659860522	103
2	1476	236.316579201731	104
2	1476	236.316579201731	105
3	24	6.586819628137	0
3	24	6.586819628137	1
3	24	6.586819628137	2
3	44	8.514636512934	3
3	44	8.514636512934	4
3	44	8.514636512934	5
3	70	12.908902426741	6
3	70	12.908902426741	7
3	70	12.908902426741	8
3	101	20.824413715478	9
3	101	20.824413715478	10
3	101	20.824413715478	11
3	139	23.27735289641	12
3	139	23.27735289641	13
3	139	23.27735289641	14
3	167	26.979774840609	15
3	167	26.979774840609	16
3	167	26.979774840609	17
3	180	28.302810730307	18
3	180	28.302810730307	19
3	180	28.302810730307	20
3	199	30.201395242278	21
3	199	30.201395242278	22
3	199	30.201395242278	23
3	236	34.830645278066	24
3	236	34.830645278066	25
3	236	34.830645278066	26
3	257	38.708304074643	27
3	257	38.708304074643	28
3	257	38.708304074643	29
3	293	44.761316751375	30
3	293	44.761316751375	31
3	293	44.761316751375	32
3	331	49.39824499254	33
3	331	49.39824499254	34
3	331	49.39824499254	35
3	379	55.4292803443	36
3	379	55.4292803443	37
3	379	55.4292803443	38
3	405	56.642799238494	39
3	405	56.642799238494	40
3	405	56.642799238494	41
3	439	62.756088199101	42
3	439	62.756088199101	43
3	439	62.756088199101	44
3	452	65.93172015817	45
3	452	65.93172015817	46
3	452	65.93172015817	47
3	475	67.823529555116	48
3	475	67.823529555116	49
3	475	67.823529555116	50
3	491	69.31237922984	51
3	491	69.31237922984	52
3	491	69.31237922984	53
3	523	79.730084907736	54
3	523	79.730084907736	55
3	523	79.730084907736	56
3	550	83.57499630407	57
3	550	83.57499630407	58
3	550	83.57499630407	59
3	565	84.702675376572	60
3	565	84.702675376572	61
3	565	84.702675376572	62
3	594	90.779044933216	63
3	594	90.779044933216	64
3	594	90.779044933216	65
3	623	97.163152193877	66
3	623	97.163152193877	67
3	623	97.163152193877	68
3	643	100.483603741914	69
3	643	100.483603741914	70
3	643	100.483603741914	71
3	660	103.033763428829	72
3	660	103.033763428829	73
3	660	103.033763428829	74
3	687	107.632370247162	75
3	687	107.632370247162	76
3	687	107.632370247162	77
3	714	112.099881901067	78
3	714	112.099881901067	79
3	714	112.099881901067	80
3	751	114.994028690052	81
3	751	114.994028690052	82
3	751	114.994028690052	83
3	763	116.955193399393	84
3	763	116.955193399393	85
3	763	116.955193399393	86
3	799	125.245200408758	87
3	799	125.245200408758	88
3	799	125.245200408758	89
3	828	133.717725386895	90
3	828	133.717725386895	91
3	828	133.717725386895	92
3	851	135.52902291377	93
3	851	135.52902291377	94
3	851	135.52902291377	95
3	874	136.593458598263	96
3	874	136.593458598263	97
3	874	136.593458598263	98
3	909	137.693815208043	99
3	909	137.693815208043	100
3	909	137.693815208043	101
3	937	146.277233049555	102
3	937	146.277233049555	103
3	937	146.277233049555	104
3	956	151.085454134813	105
3	956	151.085454134813	106
3	956	151.085454134813	107
3	990	155.872054500298	108
3	990	155.872054500298	109
3	990	155.872054500298	110
3	1013	162.623003691107	111
3	1013	162.623003691107	112
3	1013	162.623003691107	113
3	1040	167.949393397423	114
3	1040	167.949393397423	115
3	1040	167.949393397423	116
3	1131	179.244399776741	117
3	1131	179.244399776741	118
3	1131	179.244399776741	119
3	1157	181.854213932292	120
3	1157	181.854213932292	121
3	1157	181.854213932292	122
3	1183	184.996217328861	123
3	1183	184.996217328861	124
3	1183	184.996217328861	125
3	1211	194.987269045866	126
3	1211	194.987269045866	127
3	1211	194.987269045866	128
3	1238	201.110148524924	129
3	1238	201.110148524924	130
3	1238	201.110148524924	131
3	1263	205.019761566944	132
3	1263	205.019761566944	133
3	1263	205.019761566944	134
3	1297	211.854590994237	135
3	1297	211.854590994237	136
3	1297	211.854590994237	137
3	1314	215.351997006508	138
3	1314	215.351997006508	139
3	1314	215.351997006508	140
3	1346	217.226971669583	141
3	1346	217.226971669583	142
3	1346	217.226971669583	143
3	1365	220.315668872086	144
3	1365	220.315668872086	145
3	1365	220.315668872086	146
3	1429	231.323976901888	147
3	1429	231.323976901888	148
3	1429	231.323976901888	149
3	1456	234.749775437449	150
3	1456	234.749775437449	151
3	1456	234.749775437449	152
3	1478	236.326550744461	153
3	1478	236.326550744461	154
3	1478	236.326550744461	155
4	28	6.599427786636	0
4	28	6.599427786636	1
4	28	6.599427786636	2
4	28	6.599427786636	3
4	43	8.510990071454	4
4	43	8.510990071454	5
4	43	8.510990071454	6
4	43	8.510990071454	7
4	75	12.934195508328	8
4	75	12.934195508328	9
4	75	12.934195508328	10
4	75	12.934195508328	11
4	105	20.83679156908	12
4	105	20.83679156908	13
4	105	20.83679156908	14
4	105	20.83679156908	15
4	121	22.125964571364	16
4	121	22.125964571364	17
4	121	22.125964571364	18
4	121	22.125964571364	19
4	143	23.295305810573	20
4	143	23.295305810573	21
4	143	23.295305810573	22
4	143	23.295305810573	23
4	161	26.969406761387	24
4	161	26.969406761387	25
4	161	26.969406761387	26
4	161	26.969406761387	27
4	184	28.313472847663	28
4	184	28.313472847663	29
4	184	28.313472847663	30
4	184	28.313472847663	31
4	203	30.218883069713	32
4	203	30.218883069713	33
4	203	30.218883069713	34
4	203	30.218883069713	35
4	220	33.631090480465	36
4	220	33.631090480465	37
4	220	33.631090480465	38
4	220	33.631090480465	39
4	265	38.742156911812	40
4	265	38.742156911812	41
4	265	38.742156911812	42
4	265	38.742156911812	43
4	300	44.781939278356	44
4	300	44.781939278356	45
4	300	44.781939278356	46
4	300	44.781939278356	47
4	317	48.238730760334	48
4	317	48.238730760334	49
4	317	48.238730760334	50
4	317	48.238730760334	51
4	338	49.41485830768	52
4	338	49.41485830768	53
4	338	49.41485830768	54
4	338	49.41485830768	55
4	354	51.013845805707	56
4	354	51.013845805707	57
4	354	51.013845805707	58
4	354	51.013845805707	59
4	380	55.43782115688	60
4	380	55.43782115688	61
4	380	55.43782115688	62
4	380	55.43782115688	63
4	409	56.657742328238	64
4	409	56.657742328238	65
4	409	56.657742328238	66
4	409	56.657742328238	67
4	463	65.985695814743	68
4	463	65.985695814743	69
4	463	65.985695814743	70
4	463	65.985695814743	71
4	501	69.34607930658	72
4	501	69.34607930658	73
4	501	69.34607930658	74
4	501	69.34607930658	75
4	524	79.730490025194	76
4	524	79.730490025194	77
4	524	79.730490025194	78
4	524	79.730490025194	79
4	571	84.715224584676	80
4	571	84.715224584676	81
4	571	84.715224584676	82
4	571	84.715224584676	83
4	597	90.785582099288	84
4	597	90.785582099288	85
4	597	90.785582099288	86
4	597	90.785582099288	87
4	638	100.467371093536	88
4	638	100.467371093536	89
4	638	100.467371093536	90
4	638	100.467371093536	91
4	664	103.045326364147	92
4	664	103.045326364147	93
4	664	103.045326364147	94
4	664	103.045326364147	95
4	688	107.638303517756	96
4	688	107.638303517756	97
4	688	107.638303517756	98
4	688	107.638303517756	99
4	719	112.109898606559	100
4	719	112.109898606559	101
4	719	112.109898606559	102
4	719	112.109898606559	103
4	739	114.970338753697	104
4	739	114.970338753697	105
4	739	114.970338753697	106
4	739	114.970338753697	107
4	762	116.952313013505	108
4	762	116.952313013505	109
4	762	116.952313013505	110
4	762	116.952313013505	111
4	804	125.266114579166	112
4	804	125.266114579166	113
4	804	125.266114579166	114
4	804	125.266114579166	115
4	835	133.746423774471	116
4	835	133.746423774471	117
4	835	133.746423774471	118
4	835	133.746423774471	119
4	856	135.553082232131	120
4	856	135.553082232131	121
4	856	135.553082232131	122
4	856	135.553082232131	123
4	880	136.616586747646	124
4	880	136.616586747646	125
4	880	136.616586747646	126
4	880	136.616586747646	127
4	897	137.660190848721	128
4	897	137.660190848721	129
4	897	137.660190848721	130
4	897	137.660190848721	131
4	928	146.263204833351	132
4	928	146.263204833351	133
4	928	146.263204833351	134
4	928	146.263204833351	135
4	955	151.081577101145	136
4	955	151.081577101145	137
4	955	151.081577101145	138
4	955	151.081577101145	139
4	983	155.854519610928	140
4	983	155.854519610928	141
4	983	155.854519610928	142
4	983	155.854519610928	143
4	1034	167.933366832938	144
4	1034	167.933366832938	145
4	1034	167.933366832938	146
4	1034	167.933366832938	147
4	1069	171.933594242571	148
4	1069	171.933594242571	149
4	1069	171.933594242571	150
4	1069	171.933594242571	151
4	1085	173.223702514364	152
4	1085	173.223702514364	153
4	1085	173.223702514364	154
4	1085	173.223702514364	155
4	1105	175.896301792766	156
4	1105	175.896301792766	157
4	1105	175.896301792766	158
4	1105	175.896301792766	159
4	1119	179.196183663134	160
4	1119	179.196183663134	161
4	1119	179.196183663134	162
4	1119	179.196183663134	163
4	1150	181.843581959096	164
4	1150	181.843581959096	165
4	1150	181.843581959096	166
4	1150	181.843581959096	167
4	1174	184.948423693181	168
4	1174	184.948423693181	169
4	1174	184.948423693181	170
4	1174	184.948423693181	171
4	1206	194.964844870991	172
4	1206	194.964844870991	173
4	1206	194.964844870991	174
4	1206	194.964844870991	175
4	1244	201.124365463621	176
4	1244	201.124365463621	177
4	1244	201.124365463621	178
4	1244	201.124365463621	179
4	1258	205.008970944596	180
4	1258	205.008970944596	181
4	1258	205.008970944596	182
4	1258	205.008970944596	183
4	1290	211.84155898152	184
4	1290	211.84155898152	185
4	1290	211.84155898152	186
4	1290	211.84155898152	187
4	1315	215.360033977141	188
4	1315	215.360033977141	189
4	1315	215.360033977141	190
4	1315	215.360033977141	191
4	1340	217.202752581297	192
4	1340	217.202752581297	193
4	1340	217.202752581297	194
4	1340	217.202752581297	195
4	1369	220.330366923659	196
4	1369	220.330366923659	197
4	1369	220.330366923659	198
4	1369	220.330366923659	199
4	1390	223.111459762561	200
4	1390	223.111459762561	201
4	1390	223.111459762561	202
4	1390	223.111459762561	203
4	1430	231.3282340994	204
4	1430	231.3282340994	205
4	1430	231.3282340994	206
4	1430	231.3282340994	207
4	1451	234.731259346408	208
4	1451	234.731259346408	209
4	1451	234.731259346408	210
4	1451	234.731259346408	211
4	1471	236.305508610074	212
4	1471	236.305508610074	213
4	1471	236.305508610074	214
4	1471	236.305508610074	215
5	55	8.541016376225	0
5	55	8.541016376225	1
5	55	8.541016376225	2
5	74	12.924221878286	3
5	74	12.924221878286	4
5	74	12.924221878286	5
5	106	20.837500003561	6
5	106	20.837500003561	7
5	106	20.837500003561	8
5	148	23.310047282114	9
5	148	23.310047282114	10
5	148	23.310047282114	11
5	225	33.66806091023	12
5	225	33.66806091023	13
5	225	33.66806091023	14
5	261	38.726745325649	15
5	261	38.726745325649	16
5	261	38.726745325649	17
5	339	49.41756740165	18
5	339	49.41756740165	19
5	339	49.41756740165	20
5	359	51.028467496923	21
5	359	51.028467496923	22
5	359	51.028467496923	23
5	388	55.452563088411	24
5	388	55.452563088411	25
5	388	55.452563088411	26
5	414	56.66798629646	27
5	414	56.66798629646	28
5	414	56.66798629646	29
5	456	65.941961897594	30
5	456	65.941961897594	31
5	456	65.941961897594	32
5	479	67.85346599609	33
5	479	67.85346599609	34
5	479	67.85346599609	35
5	497	69.327477745679	36
5	497	69.327477745679	37
5	497	69.327477745679	38
5	528	79.740131649936	39
5	528	79.740131649936	40
5	528	79.740131649936	41
5	572	84.720177095676	42
5	572	84.720177095676	43
5	572	84.720177095676	44
5	605	90.809076380152	45
5	605	90.809076380152	46
5	605	90.809076380152	47
5	644	100.486662402592	48
5	644	100.486662402592	49
5	644	100.486662402592	50
5	669	103.067890596127	51
5	669	103.067890596127	52
5	669	103.067890596127	53
5	697	107.654527900753	54
5	697	107.654527900753	55
5	697	107.654527900753	56
5	726	112.127973690784	57
5	726	112.127973690784	58
5	726	112.127973690784	59
5	745	114.982086993223	60
5	745	114.982086993223	61
5	745	114.982086993223	62
5	840	133.756537218697	63
5	840	133.756537218697	64
5	840	133.756537218697	65
5	855	135.544045710851	66
5	855	135.544045710851	67
5	855	135.544045710851	68
5	879	136.613095398215	69
5	879	136.613095398215	70
5	879	136.613095398215	71
5	903	137.679932587176	72
5	903	137.679932587176	73
5	903	137.679932587176	74
5	936	146.276306001302	75
5	936	146.276306001302	76
5	936	146.276306001302	77
5	965	151.102694666917	78
5	965	151.102694666917	79
5	965	151.102694666917	80
5	994	155.900654666141	81
5	994	155.900654666141	82
5	994	155.900654666141	83
5	1017	162.634752183215	84
5	1017	162.634752183215	85
5	1017	162.634752183215	86
5	1039	167.944505956878	87
5	1039	167.944505956878	88
5	1039	167.944505956878	89
5	1074	171.944173645085	90
5	1074	171.944173645085	91
5	1074	171.944173645085	92
5	1125	179.222790381014	93
5	1125	179.222790381014	94
5	1125	179.222790381014	95
5	1158	181.861525412757	96
5	1158	181.861525412757	97
5	1158	181.861525412757	98
5	1179	184.973003079724	99
5	1179	184.973003079724	100
5	1179	184.973003079724	101
5	1215	194.999774286689	102
5	1215	194.999774286689	103
5	1215	194.999774286689	104
5	1264	205.02343588861	105
5	1264	205.02343588861	106
5	1264	205.02343588861	107
5	1298	211.858650155754	108
5	1298	211.858650155754	109
5	1298	211.858650155754	110
5	1320	215.369502735226	111
5	1320	215.369502735226	112
5	1320	215.369502735226	113
5	1345	217.217914656585	114
5	1345	217.217914656585	115
5	1345	217.217914656585	116
5	1374	220.352448033227	117
5	1374	220.352448033227	118
5	1374	220.352448033227	119
5	1395	223.142918012994	120
5	1395	223.142918012994	121
5	1395	223.142918012994	122
5	1438	231.368197767191	123
5	1438	231.368197767191	124
5	1438	231.368197767191	125
5	1460	234.767070646004	126
5	1460	234.767070646004	127
5	1460	234.767070646004	128
5	1477	236.317494539825	129
5	1477	236.317494539825	130
5	1477	236.317494539825	131
6	58	8.551016376225	0
6	78	12.934221878286	1
6	113	20.847500003561	2
6	151	23.320047282114	3
6	417	56.67798629646	4
6	482	67.86346599609	5
6	500	69.337477745679	6
6	702	107.664527900753	7
6	729	112.137973690784	8
6	750	114.992086993223	9
6	843	133.766537218697	10
6	859	135.554045710851	11
6	908	137.689932587176	12
6	940	146.286306001302	13
6	970	151.112694666917	14
6	997	155.910654666141	15
6	1020	162.644752183215	16
6	1043	167.954505956878	17
6	1077	171.954173645085	18
6	1130	179.232790381014	19
6	1164	181.871525412757	20
6	1218	195.009774286689	21
6	1271	205.03343588861	22
6	1304	211.868650155754	23
6	1329	215.379502735226	24
6	1349	217.227914656585	25

