version 2
run General-3-20231008-07:03:17-16741
attr configname General
attr datetime 20231008-07:03:17
attr experiment General
attr inifile omnetpp.ini
attr iterationvars ""
attr iterationvarsf ""
attr measurement ""
attr network Network2
attr processid 16741
attr repetition 3
attr replication #3
attr resultdir results
attr runnumber 3
attr seedset 3
param Network2.node[*].transmissionTime "uniform(1s, 2s)"
param Network2.node[*].delayTime "uniform(0.01s, 0.2s)"
param Network2.node[*].processingTime exponential(0.01s)
param Network2.node[*].lossProbability 0.5

vector 0 Network2.node[0] txVector ETV
vector 1 Network2.node[1] txVector ETV
vector 2 Network2.node[6] txVector ETV
vector 3 Network2.node[3] txVector ETV
vector 4 Network2.node[4] txVector ETV
vector 5 Network2.node[2] txVector ETV
vector 6 Network2.node[5] rxVector ETV
0	1	0.114651601831	0
0	15	1.185376482154	1
0	17	2.433264783886	2
0	19	3.526816279464	3
0	21	5.221639936626	4
0	23	6.36701008405	5
0	46	7.820182383595	6
0	48	8.977050124271	7
0	55	10.521699136891	8
0	57	12.414764243248	9
0	71	14.133186268457	10
0	91	15.546904952102	11
0	111	17.209591218107	12
0	134	18.571931676776	13
0	144	19.814607098303	14
0	167	21.538546234905	15
0	190	23.204170842492	16
0	213	25.118146104575	17
0	215	26.620676320814	18
0	225	27.793039220222	19
0	227	29.365276840119	20
0	229	30.707696426962	21
0	239	32.317342141713	22
0	241	33.574548519752	23
0	264	34.851190066501	24
0	279	36.391950901901	25
0	302	38.08870088968	26
0	304	39.508283651038	27
0	323	41.385495686275	28
0	346	42.491417411086	29
0	348	43.922232429799	30
0	371	45.461678931326	31
0	373	46.600855444627	32
0	375	47.622951258974	33
0	398	48.845327578554	34
0	400	50.291137757082	35
0	402	51.359687679517	36
0	404	52.436183960247	37
0	406	53.974976622337	38
0	408	55.050543025905	39
0	422	56.234315341875	40
0	434	57.391559995083	41
0	436	58.87106730633	42
0	438	59.871812826559	43
0	461	60.902124184255	44
0	463	62.678886218533	45
0	465	64.472208896723	46
0	484	66.1065123664	47
0	486	67.148543220318	48
0	509	68.565810117011	49
0	532	70.560330143736	50
0	547	72.068487575117	51
0	567	73.742817950274	52
0	590	75.639226936807	53
0	613	76.712144026372	54
0	632	78.127743237025	55
0	634	79.337449676662	56
0	636	80.554086945092	57
0	638	82.070331425944	58
0	640	83.640539669737	59
0	663	85.464500845715	60
0	673	86.547572986528	61
0	696	87.622297894748	62
0	719	89.567905212592	63
0	726	91.565642741115	64
0	741	93.48611216068	65
0	761	94.788971714747	66
0	772	96.278235706339	67
0	788	98.256640855294	68
0	799	99.62027472125	69
0	822	101.132698313171	70
0	841	102.681935177954	71
0	860	103.930625110004	72
0	862	105.626131400304	73
0	864	107.231342024706	74
0	866	109.084753247048	75
0	889	111.04767645367	76
0	904	112.626439237106	77
0	927	114.371043997188	78
0	950	116.035771315754	79
0	969	117.601605648943	80
0	971	119.317886928399	81
0	973	120.773817253602	82
0	975	122.170716919075	83
0	977	123.494551011431	84
0	979	124.96950785683	85
0	1002	126.836516088876	86
0	1022	128.368837631377	87
0	1024	130.047076868661	88
0	1026	131.947122893598	89
0	1049	133.104568451246	90
0	1059	134.50865362638	91
0	1061	135.789902609609	92
0	1081	137.01662326937	93
0	1083	138.182374313543	94
0	1085	139.537148583051	95
0	1105	140.661483827116	96
0	1107	142.150195431499	97
0	1114	144.094211906031	98
0	1116	145.343153682607	99
0	1126	147.037678879755	100
0	1128	148.130926461727	101
0	1130	149.69360252174	102
0	1132	151.369563570781	103
0	1134	153.002782150241	104
0	1144	154.265034453314	105
0	1167	155.408126971055	106
0	1169	156.824645023629	107
0	1171	158.040337209659	108
0	1173	159.498065148782	109
0	1175	161.443525957245	110
0	1198	162.966026618447	111
0	1200	164.010504121728	112
0	1223	165.261596657637	113
0	1246	166.57939510357	114
0	1248	168.274188191233	115
0	1250	169.731171274626	116
0	1257	171.449031422449	117
0	1280	172.95130137035	118
0	1287	174.700910394148	119
0	1289	176.679650718647	120
0	1291	177.70679329389	121
0	1314	179.238869139061	122
0	1316	180.532427084234	123
0	1318	182.459866895873	124
0	1341	183.644032633465	125
0	1364	185.467071821515	126
0	1371	187.379776301861	127
0	1378	188.555433049167	128
0	1401	190.36955727434	129
0	1403	192.230451381367	130
0	1419	193.593229250118	131
0	1442	195.135429438969	132
0	1444	196.820215402005	133
0	1446	198.38903647761	134
0	1469	199.473988220861	135
0	1492	201.018019435994	136
0	1494	202.32185113623	137
0	1496	203.96700358351	138
0	1519	205.217005426365	139
0	1521	206.776046399328	140
0	1544	208.350648039554	141
0	1546	210.083272252067	142
0	1569	211.742964864078	143
0	1571	213.484153135049	144
0	1587	215.069527222377	145
0	1610	216.3031069183	146
0	1633	218.250389837029	147
0	1656	219.910211263991	148
0	1679	221.562669939197	149
0	1702	222.586962293203	150
0	1704	224.019883991054	151
0	1706	225.042582378092	152
0	1708	226.845819545745	153
0	1710	228.227361255393	154
0	1729	229.691554929663	155
0	1752	230.954435207017	156
0	1754	232.695028352851	157
0	1764	233.90547201114	158
0	1766	235.385292221627	159
0	1789	236.603303611812	160
0	1812	237.860961231471	161
0	1835	239.661955818136	162
1	3	0.14297423212	0
1	3	0.14297423212	1
1	3	0.14297423212	2
1	3	0.14297423212	3
1	25	6.379438152841	4
1	25	6.379438152841	5
1	25	6.379438152841	6
1	25	6.379438152841	7
1	50	9.002205719202	8
1	50	9.002205719202	9
1	50	9.002205719202	10
1	50	9.002205719202	11
1	59	12.424972542717	12
1	59	12.424972542717	13
1	59	12.424972542717	14
1	59	12.424972542717	15
1	73	14.158657404075	16
1	73	14.158657404075	17
1	73	14.158657404075	18
1	73	14.158657404075	19
1	93	15.57738996773	20
1	93	15.57738996773	21
1	93	15.57738996773	22
1	93	15.57738996773	23
1	113	17.226849876967	24
1	113	17.226849876967	25
1	113	17.226849876967	26
1	113	17.226849876967	27
1	136	18.617546256953	28
1	136	18.617546256953	29
1	136	18.617546256953	30
1	136	18.617546256953	31
1	146	19.831052356354	32
1	146	19.831052356354	33
1	146	19.831052356354	34
1	146	19.831052356354	35
1	169	21.552544614974	36
1	169	21.552544614974	37
1	169	21.552544614974	38
1	169	21.552544614974	39
1	192	23.224212928626	40
1	192	23.224212928626	41
1	192	23.224212928626	42
1	192	23.224212928626	43
1	217	26.634220336882	44
1	217	26.634220336882	45
1	217	26.634220336882	46
1	217	26.634220336882	47
1	231	30.71898177868	48
1	231	30.71898177868	49
1	231	30.71898177868	50
1	231	30.71898177868	51
1	243	33.587448587618	52
1	243	33.587448587618	53
1	243	33.587448587618	54
1	243	33.587448587618	55
1	266	34.879358527419	56
1	266	34.879358527419	57
1	266	34.879358527419	58
1	266	34.879358527419	59
1	281	36.41575035627	60
1	281	36.41575035627	61
1	281	36.41575035627	62
1	281	36.41575035627	63
1	306	39.519952939858	64
1	306	39.519952939858	65
1	306	39.519952939858	66
1	306	39.519952939858	67
1	325	41.39886866985	68
1	325	41.39886866985	69
1	325	41.39886866985	70
1	325	41.39886866985	71
1	350	43.933236898266	72
1	350	43.933236898266	73
1	350	43.933236898266	74
1	350	43.933236898266	75
1	377	47.637363410225	76
1	377	47.637363410225	77
1	377	47.637363410225	78
1	377	47.637363410225	79
1	410	55.06627636951	80
1	410	55.06627636951	81
1	410	55.06627636951	82
1	410	55.06627636951	83
1	424	56.247538194013	84
1	424	56.247538194013	85
1	424	56.247538194013	86
1	424	56.247538194013	87
1	440	59.888003398643	88
1	440	59.888003398643	89
1	440	59.888003398643	90
1	440	59.888003398643	91
1	467	64.496506810345	92
1	467	64.496506810345	93
1	467	64.496506810345	94
1	467	64.496506810345	95
1	488	67.158585975997	96
1	488	67.158585975997	97
1	488	67.158585975997	98
1	488	67.158585975997	99
1	511	68.579877520795	100
1	511	68.579877520795	101
1	511	68.579877520795	102
1	511	68.579877520795	103
1	534	70.590847593923	104
1	534	70.590847593923	105
1	534	70.590847593923	106
1	534	70.590847593923	107
1	549	72.102386233297	108
1	549	72.102386233297	109
1	549	72.102386233297	110
1	549	72.102386233297	111
1	569	73.766408772973	112
1	569	73.766408772973	113
1	569	73.766408772973	114
1	569	73.766408772973	115
1	592	75.658618115859	116
1	592	75.658618115859	117
1	592	75.658618115859	118
1	592	75.658618115859	119
1	615	76.730609312091	120
1	615	76.730609312091	121
1	615	76.730609312091	122
1	615	76.730609312091	123
1	642	83.657208835709	124
1	642	83.657208835709	125
1	642	83.657208835709	126
1	642	83.657208835709	127
1	665	85.481536548216	128
1	665	85.481536548216	129
1	665	85.481536548216	130
1	665	85.481536548216	131
1	675	86.562619138937	132
1	675	86.562619138937	133
1	675	86.562619138937	134
1	675	86.562619138937	135
1	698	87.63378613683	136
1	698	87.63378613683	137
1	698	87.63378613683	138
1	698	87.63378613683	139
1	721	89.599867022799	140
1	721	89.599867022799	141
1	721	89.599867022799	142
1	721	89.599867022799	143
1	728	91.58116177401	144
1	728	91.58116177401	145
1	728	91.58116177401	146
1	728	91.58116177401	147
1	743	93.496490601613	148
1	743	93.496490601613	149
1	743	93.496490601613	150
1	743	93.496490601613	151
1	763	94.802368132531	152
1	763	94.802368132531	153
1	763	94.802368132531	154
1	763	94.802368132531	155
1	774	96.293974704944	156
1	774	96.293974704944	157
1	774	96.293974704944	158
1	774	96.293974704944	159
1	790	98.273386203951	160
1	790	98.273386203951	161
1	790	98.273386203951	162
1	790	98.273386203951	163
1	801	99.641246368199	164
1	801	99.641246368199	165
1	801	99.641246368199	166
1	801	99.641246368199	167
1	824	101.146338350312	168
1	824	101.146338350312	169
1	824	101.146338350312	170
1	824	101.146338350312	171
1	843	102.697852628797	172
1	843	102.697852628797	173
1	843	102.697852628797	174
1	843	102.697852628797	175
1	868	109.099210105759	176
1	868	109.099210105759	177
1	868	109.099210105759	178
1	868	109.099210105759	179
1	891	111.061022106598	180
1	891	111.061022106598	181
1	891	111.061022106598	182
1	891	111.061022106598	183
1	906	112.637580459384	184
1	906	112.637580459384	185
1	906	112.637580459384	186
1	906	112.637580459384	187
1	929	114.381376758094	188
1	929	114.381376758094	189
1	929	114.381376758094	190
1	929	114.381376758094	191
1	952	116.049673462394	192
1	952	116.049673462394	193
1	952	116.049673462394	194
1	952	116.049673462394	195
1	981	125.007954445287	196
1	981	125.007954445287	197
1	981	125.007954445287	198
1	981	125.007954445287	199
1	1004	126.872554280129	200
1	1004	126.872554280129	201
1	1004	126.872554280129	202
1	1004	126.872554280129	203
1	1028	131.964634155625	204
1	1028	131.964634155625	205
1	1028	131.964634155625	206
1	1028	131.964634155625	207
1	1051	133.127803813195	208
1	1051	133.127803813195	209
1	1051	133.127803813195	210
1	1051	133.127803813195	211
1	1063	135.837193592507	212
1	1063	135.837193592507	213
1	1063	135.837193592507	214
1	1063	135.837193592507	215
1	1087	139.550293625288	216
1	1087	139.550293625288	217
1	1087	139.550293625288	218
1	1087	139.550293625288	219
1	1109	142.166481508644	220
1	1109	142.166481508644	221
1	1109	142.166481508644	222
1	1109	142.166481508644	223
1	1118	145.364031199827	224
1	1118	145.364031199827	225
1	1118	145.364031199827	226
1	1118	145.364031199827	227
1	1136	153.033572869661	228
1	1136	153.033572869661	229
1	1136	153.033572869661	230
1	1136	153.033572869661	231
1	1146	154.29241453301	232
1	1146	154.29241453301	233
1	1146	154.29241453301	234
1	1146	154.29241453301	235
1	1177	161.46282943231	236
1	1177	161.46282943231	237
1	1177	161.46282943231	238
1	1177	161.46282943231	239
1	1202	164.023219920762	240
1	1202	164.023219920762	241
1	1202	164.023219920762	242
1	1202	164.023219920762	243
1	1225	165.289620111321	244
1	1225	165.289620111321	245
1	1225	165.289620111321	246
1	1225	165.289620111321	247
1	1252	169.752695077314	248
1	1252	169.752695077314	249
1	1252	169.752695077314	250
1	1252	169.752695077314	251
1	1259	171.468765113261	252
1	1259	171.468765113261	253
1	1259	171.468765113261	254
1	1259	171.468765113261	255
1	1282	172.96402576245	256
1	1282	172.96402576245	257
1	1282	172.96402576245	258
1	1282	172.96402576245	259
1	1293	177.717457960307	260
1	1293	177.717457960307	261
1	1293	177.717457960307	262
1	1293	177.717457960307	263
1	1320	182.475111782422	264
1	1320	182.475111782422	265
1	1320	182.475111782422	266
1	1320	182.475111782422	267
1	1343	183.658363618128	268
1	1343	183.658363618128	269
1	1343	183.658363618128	270
1	1343	183.658363618128	271
1	1366	185.480465861942	272
1	1366	185.480465861942	273
1	1366	185.480465861942	274
1	1366	185.480465861942	275
1	1373	187.394540802921	276
1	1373	187.394540802921	277
1	1373	187.394540802921	278
1	1373	187.394540802921	279
1	1380	188.569420157029	280
1	1380	188.569420157029	281
1	1380	188.569420157029	282
1	1380	188.569420157029	283
1	1405	192.244342865142	284
1	1405	192.244342865142	285
1	1405	192.244342865142	286
1	1405	192.244342865142	287
1	1421	193.607744285637	288
1	1421	193.607744285637	289
1	1421	193.607744285637	290
1	1421	193.607744285637	291
1	1448	198.399850089006	292
1	1448	198.399850089006	293
1	1448	198.399850089006	294
1	1448	198.399850089006	295
1	1471	199.519687181354	296
1	1471	199.519687181354	297
1	1471	199.519687181354	298
1	1471	199.519687181354	299
1	1498	203.987621090306	300
1	1498	203.987621090306	301
1	1498	203.987621090306	302
1	1498	203.987621090306	303
1	1523	206.809874041496	304
1	1523	206.809874041496	305
1	1523	206.809874041496	306
1	1523	206.809874041496	307
1	1548	210.11303538546	308
1	1548	210.11303538546	309
1	1548	210.11303538546	310
1	1548	210.11303538546	311
1	1573	213.498303730185	312
1	1573	213.498303730185	313
1	1573	213.498303730185	314
1	1573	213.498303730185	315
1	1589	215.09614606036	316
1	1589	215.09614606036	317
1	1589	215.09614606036	318
1	1589	215.09614606036	319
1	1612	216.325767830267	320
1	1612	216.325767830267	321
1	1612	216.325767830267	322
1	1612	216.325767830267	323
1	1635	218.262724506332	324
1	1635	218.262724506332	325
1	1635	218.262724506332	326
1	1635	218.262724506332	327
1	1658	219.923176591996	328
1	1658	219.923176591996	329
1	1658	219.923176591996	330
1	1658	219.923176591996	331
1	1681	221.582971019902	332
1	1681	221.582971019902	333
1	1681	221.582971019902	334
1	1681	221.582971019902	335
1	1712	228.243172125317	336
1	1712	228.243172125317	337
1	1712	228.243172125317	338
1	1712	228.243172125317	339
1	1731	229.712915260676	340
1	1731	229.712915260676	341
1	1731	229.712915260676	342
1	1731	229.712915260676	343
1	1756	232.70707998164	344
1	1756	232.70707998164	345
1	1756	232.70707998164	346
1	1756	232.70707998164	347
1	1768	235.401151401146	348
1	1768	235.401151401146	349
1	1768	235.401151401146	350
1	1768	235.401151401146	351
1	1791	236.621785642414	352
1	1791	236.621785642414	353
1	1791	236.621785642414	354
1	1791	236.621785642414	355
1	1814	237.879803767188	356
1	1814	237.879803767188	357
1	1814	237.879803767188	358
1	1814	237.879803767188	359
2	8	0.158720088868	0
2	8	0.158720088868	1
2	35	6.413891334356	2
2	35	6.413891334356	3
2	68	12.451523655085	4
2	68	12.451523655085	5
2	118	17.240652011294	6
2	118	17.240652011294	7
2	141	18.634132667252	8
2	141	18.634132667252	9
2	151	19.841805651166	10
2	151	19.841805651166	11
2	187	21.611454925337	12
2	187	21.611454925337	13
2	197	23.236399223399	14
2	197	23.236399223399	15
2	222	26.650295158869	16
2	222	26.650295158869	17
2	236	30.7343282997	18
2	236	30.7343282997	19
2	257	33.614695355307	20
2	257	33.614695355307	21
2	296	36.453711746337	22
2	296	36.453711746337	23
2	311	39.539718752442	24
2	311	39.539718752442	25
2	331	41.420830887873	26
2	331	41.420830887873	27
2	356	43.948477982749	28
2	356	43.948477982749	29
2	389	47.671898942468	30
2	389	47.671898942468	31
2	416	55.085965710514	32
2	416	55.085965710514	33
2	445	59.901210303231	34
2	445	59.901210303231	35
2	477	64.52335849648	36
2	477	64.52335849648	37
2	493	67.16922113411	38
2	493	67.16922113411	39
2	525	68.633417619113	40
2	525	68.633417619113	41
2	540	70.603750185173	42
2	540	70.603750185173	43
2	574	73.812559647136	44
2	574	73.812559647136	45
2	597	75.671799988457	46
2	597	75.671799988457	47
2	620	76.746584753894	48
2	620	76.746584753894	49
2	647	83.68085852718	50
2	647	83.68085852718	51
2	670	85.505038617268	52
2	670	85.505038617268	53
2	681	86.580103706195	54
2	681	86.580103706195	55
2	716	87.679395898599	56
2	716	87.679395898599	57
2	738	91.611953933423	58
2	738	91.611953933423	59
2	806	99.652922634241	60
2	806	99.652922634241	61
2	831	101.1654171574	62
2	831	101.1654171574	63
2	848	102.708139649427	64
2	848	102.708139649427	65
2	878	109.128631365531	66
2	878	109.128631365531	67
2	897	111.091120408234	68
2	897	111.091120408234	69
2	924	112.690620794239	70
2	924	112.690620794239	71
2	943	114.433993815134	72
2	943	114.433993815134	73
2	957	116.061047813292	74
2	957	116.061047813292	75
2	986	125.023425475545	76
2	986	125.023425475545	77
2	1038	131.986970554955	78
2	1038	131.986970554955	79
2	1056	133.145885210267	80
2	1056	133.145885210267	81
2	1123	145.374249594512	82
2	1123	145.374249594512	83
2	1141	153.069259322939	84
2	1141	153.069259322939	85
2	1151	154.311577745775	86
2	1151	154.311577745775	87
2	1183	161.476957009643	88
2	1183	161.476957009643	89
2	1220	164.069234279329	90
2	1220	164.069234279329	91
2	1230	165.303047836159	92
2	1230	165.303047836159	93
2	1265	171.480343602884	94
2	1265	171.480343602884	95
2	1311	177.797924783572	96
2	1311	177.797924783572	97
2	1325	182.485157068538	98
2	1325	182.485157068538	99
2	1361	183.706509385956	100
2	1361	183.706509385956	101
2	1386	188.582914859783	102
2	1386	188.582914859783	103
2	1426	193.654392557601	104
2	1426	193.654392557601	105
2	1459	198.425251507278	106
2	1459	198.425251507278	107
2	1477	199.539941793969	108
2	1477	199.539941793969	109
2	1516	204.024764197335	110
2	1516	204.024764197335	111
2	1534	206.839456412367	112
2	1534	206.839456412367	113
2	1555	210.125343115869	114
2	1555	210.125343115869	115
2	1595	215.114991485383	116
2	1595	215.114991485383	117
2	1622	216.350894314521	118
2	1622	216.350894314521	119
2	1645	218.297291291182	120
2	1645	218.297291291182	121
2	1668	219.965472271729	122
2	1668	219.965472271729	123
2	1687	221.609188342274	124
2	1687	221.609188342274	125
2	1717	228.253282782011	126
2	1717	228.253282782011	127
2	1736	229.7405649985	128
2	1736	229.7405649985	129
2	1761	232.720857516355	130
2	1761	232.720857516355	131
2	1774	235.42140601913	132
2	1774	235.42140601913	133
2	1797	236.641445155367	134
2	1797	236.641445155367	135
2	1832	237.923270661418	136
2	1832	237.923270661418	137
3	9	0.161397929952	0
3	9	0.161397929952	1
3	9	0.161397929952	2
3	30	6.396223417129	3
3	30	6.396223417129	4
3	30	6.396223417129	5
3	64	12.438907505585	6
3	64	12.438907505585	7
3	64	12.438907505585	8
3	83	14.186281395886	9
3	83	14.186281395886	10
3	83	14.186281395886	11
3	107	15.613808348478	12
3	107	15.613808348478	13
3	107	15.613808348478	14
3	121	17.253371360157	15
3	121	17.253371360157	16
3	121	17.253371360157	17
3	160	19.854755757346	18
3	160	19.854755757346	19
3	160	19.854755757346	20
3	174	21.570012436583	21
3	174	21.570012436583	22
3	174	21.570012436583	23
3	198	23.242261418977	24
3	198	23.242261418977	25
3	198	23.242261418977	26
3	248	33.600661396892	27
3	248	33.600661396892	28
3	248	33.600661396892	29
3	271	34.892374242595	30
3	271	34.892374242595	31
3	271	34.892374242595	32
3	286	36.427470508698	33
3	286	36.427470508698	34
3	286	36.427470508698	35
3	312	39.541312438506	36
3	312	39.541312438506	37
3	312	39.541312438506	38
3	336	41.424684924499	39
3	336	41.424684924499	40
3	336	41.424684924499	41
3	355	43.948032249303	42
3	355	43.948032249303	43
3	355	43.948032249303	44
3	387	47.667680239875	45
3	387	47.667680239875	46
3	387	47.667680239875	47
3	415	55.085030542715	48
3	415	55.085030542715	49
3	415	55.085030542715	50
3	453	59.930315696219	51
3	453	59.930315696219	52
3	453	59.930315696219	53
3	480	64.533991186259	54
3	480	64.533991186259	55
3	480	64.533991186259	56
3	496	67.18082964225	57
3	496	67.18082964225	58
3	496	67.18082964225	59
3	528	68.646334802699	60
3	528	68.646334802699	61
3	528	68.646334802699	62
3	554	72.118869723781	63
3	554	72.118869723781	64
3	554	72.118869723781	65
3	575	73.81327503028	66
3	575	73.81327503028	67
3	575	73.81327503028	68
3	605	75.740966486531	69
3	605	75.740966486531	70
3	605	75.740966486531	71
3	621	76.752624153319	72
3	621	76.752624153319	73
3	621	76.752624153319	74
3	659	83.726450639261	75
3	659	83.726450639261	76
3	659	83.726450639261	77
3	680	86.576753794741	78
3	680	86.576753794741	79
3	680	86.576753794741	80
3	703	87.645072144736	81
3	703	87.645072144736	82
3	703	87.645072144736	83
3	749	93.51615540441	84
3	749	93.51615540441	85
3	749	93.51615540441	86
3	768	94.813454958496	87
3	768	94.813454958496	88
3	768	94.813454958496	89
3	795	98.291035654616	90
3	795	98.291035654616	91
3	795	98.291035654616	92
3	807	99.654199550569	93
3	807	99.654199550569	94
3	807	99.654199550569	95
3	830	101.158281523778	96
3	830	101.158281523778	97
3	830	101.158281523778	98
3	879	109.133435786281	99
3	879	109.133435786281	100
3	879	109.133435786281	101
3	916	112.674431238985	102
3	916	112.674431238985	103
3	916	112.674431238985	104
3	944	114.440734000357	105
3	944	114.440734000357	106
3	944	114.440734000357	107
3	958	116.068704314109	108
3	958	116.068704314109	109
3	958	116.068704314109	110
3	994	125.051756493646	111
3	994	125.051756493646	112
3	994	125.051756493646	113
3	1014	126.920930926466	114
3	1014	126.920930926466	115
3	1014	126.920930926466	116
3	1045	132.011899234588	117
3	1045	132.011899234588	118
3	1045	132.011899234588	119
3	1077	135.89730859496	120
3	1077	135.89730859496	121
3	1077	135.89730859496	122
3	1097	139.606680628383	123
3	1097	139.606680628383	124
3	1097	139.606680628383	125
3	1152	154.318261480026	126
3	1152	154.318261480026	127
3	1152	154.318261480026	128
3	1182	161.473807851906	129
3	1182	161.473807851906	130
3	1182	161.473807851906	131
3	1207	164.036274171892	132
3	1207	164.036274171892	133
3	1207	164.036274171892	134
3	1233	165.313109284429	135
3	1233	165.313109284429	136
3	1233	165.313109284429	137
3	1264	171.480100372085	138
3	1264	171.480100372085	139
3	1264	171.480100372085	140
3	1298	177.736603343167	141
3	1298	177.736603343167	142
3	1298	177.736603343167	143
3	1333	182.527584426183	144
3	1333	182.527584426183	145
3	1333	182.527584426183	146
3	1348	183.676621157814	147
3	1348	183.676621157814	148
3	1348	183.676621157814	149
3	1385	188.582869368396	150
3	1385	188.582869368396	151
3	1385	188.582869368396	152
3	1410	192.254533922161	153
3	1410	192.254533922161	154
3	1410	192.254533922161	155
3	1438	193.702088173232	156
3	1438	193.702088173232	157
3	1438	193.702088173232	158
3	1453	198.413024614723	159
3	1453	198.413024614723	160
3	1453	198.413024614723	161
3	1476	199.531958871248	162
3	1476	199.531958871248	163
3	1476	199.531958871248	164
3	1504	204.001907217857	165
3	1504	204.001907217857	166
3	1504	204.001907217857	167
3	1529	206.829606368467	168
3	1529	206.829606368467	169
3	1529	206.829606368467	170
3	1553	210.123623841062	171
3	1553	210.123623841062	172
3	1553	210.123623841062	173
3	1578	213.510000413987	174
3	1578	213.510000413987	175
3	1578	213.510000413987	176
3	1606	215.138372982591	177
3	1606	215.138372982591	178
3	1606	215.138372982591	179
3	1629	216.399900514579	180
3	1629	216.399900514579	181
3	1629	216.399900514579	182
3	1652	218.318511483185	183
3	1652	218.318511483185	184
3	1652	218.318511483185	185
3	1670	219.974366034137	186
3	1670	219.974366034137	187
3	1670	219.974366034137	188
3	1698	221.639012220428	189
3	1698	221.639012220428	190
3	1698	221.639012220428	191
3	1744	229.778209157991	192
3	1744	229.778209157991	193
3	1744	229.778209157991	194
3	1773	235.415257973626	195
3	1773	235.415257973626	196
3	1773	235.415257973626	197
3	1796	236.640559599459	198
3	1796	236.640559599459	199
3	1796	236.640559599459	200
3	1824	237.90503313881	201
3	1824	237.90503313881	202
3	1824	237.90503313881	203
4	34	6.409224371062	0
4	34	6.409224371062	1
4	34	6.409224371062	2
4	84	14.189473561783	3
4	84	14.189473561783	4
4	84	14.189473561783	5
4	103	15.602895641938	6
4	103	15.602895641938	7
4	103	15.602895641938	8
4	130	17.271876246475	9
4	130	17.271876246475	10
4	130	17.271876246475	11
4	159	19.854426014498	12
4	159	19.854426014498	13
4	159	19.854426014498	14
4	178	21.588482059797	15
4	178	21.588482059797	16
4	178	21.588482059797	17
4	209	23.284042653375	18
4	209	23.284042653375	19
4	209	23.284042653375	20
4	258	33.615057756647	21
4	258	33.615057756647	22
4	258	33.615057756647	23
4	275	34.914664807337	24
4	275	34.914664807337	25
4	275	34.914664807337	26
4	291	36.445702754541	27
4	291	36.445702754541	28
4	291	36.445702754541	29
4	342	41.438463224412	30
4	342	41.438463224412	31
4	342	41.438463224412	32
4	363	43.963812641177	33
4	363	43.963812641177	34
4	363	43.963812641177	35
4	388	47.6692325939	36
4	388	47.6692325939	37
4	388	47.6692325939	38
4	454	59.934800355541	39
4	454	59.934800355541	40
4	454	59.934800355541	41
4	500	67.192155333194	42
4	500	67.192155333194	43
4	500	67.192155333194	44
4	521	68.618622876267	45
4	521	68.618622876267	46
4	521	68.618622876267	47
4	563	72.158775920748	48
4	563	72.158775920748	49
4	563	72.158775920748	50
4	586	73.837634744867	51
4	586	73.837634744867	52
4	586	73.837634744867	53
4	606	75.742338585294	54
4	606	75.742338585294	55
4	606	75.742338585294	56
4	655	83.701768880574	57
4	655	83.701768880574	58
4	655	83.701768880574	59
4	688	86.595297980315	60
4	688	86.595297980315	61
4	688	86.595297980315	62
4	707	87.659267976731	63
4	707	87.659267976731	64
4	707	87.659267976731	65
4	757	93.543695831368	66
4	757	93.543695831368	67
4	757	93.543695831368	68
4	784	96.327407317662	69
4	784	96.327407317662	70
4	784	96.327407317662	71
4	813	99.668706078031	72
4	813	99.668706078031	73
4	813	99.668706078031	74
4	856	102.751089173903	75
4	856	102.751089173903	76
4	856	102.751089173903	77
4	885	109.161559252259	78
4	885	109.161559252259	79
4	885	109.161559252259	80
4	917	112.678273177867	81
4	917	112.678273177867	82
4	917	112.678273177867	83
4	939	114.416302935021	84
4	939	114.416302935021	85
4	939	114.416302935021	86
4	995	125.056892482875	87
4	995	125.056892482875	88
4	995	125.056892482875	89
4	1015	126.925745267185	90
4	1015	126.925745267185	91
4	1015	126.925745267185	92
4	1039	131.988013328057	93
4	1039	131.988013328057	94
4	1039	131.988013328057	95
4	1073	135.88521100167	96
4	1073	135.88521100167	97
4	1073	135.88521100167	98
4	1101	139.625947814559	99
4	1101	139.625947814559	100
4	1101	139.625947814559	101
4	1163	154.340845325701	102
4	1163	154.340845325701	103
4	1163	154.340845325701	104
4	1194	161.49724547214	105
4	1194	161.49724547214	106
4	1194	161.49724547214	107
4	1211	164.04913426053	108
4	1211	164.04913426053	109
4	1211	164.04913426053	110
4	1242	165.334135953288	111
4	1242	165.334135953288	112
4	1242	165.334135953288	113
4	1276	171.50424198567	114
4	1276	171.50424198567	115
4	1276	171.50424198567	116
4	1302	177.756883390728	117
4	1302	177.756883390728	118
4	1302	177.756883390728	119
4	1337	182.538008752174	120
4	1337	182.538008752174	121
4	1337	182.538008752174	122
4	1352	183.686803964512	123
4	1352	183.686803964512	124
4	1352	183.686803964512	125
4	1397	188.606622978541	126
4	1397	188.606622978541	127
4	1397	188.606622978541	128
4	1434	193.688535626632	129
4	1434	193.688535626632	130
4	1434	193.688535626632	131
4	1458	198.42455517491	132
4	1458	198.42455517491	133
4	1458	198.42455517491	134
4	1488	199.552340442663	135
4	1488	199.552340442663	136
4	1488	199.552340442663	137
4	1509	204.011564034888	138
4	1509	204.011564034888	139
4	1509	204.011564034888	140
4	1538	206.841325408591	141
4	1538	206.841325408591	142
4	1538	206.841325408591	143
4	1565	210.147328045711	144
4	1565	210.147328045711	145
4	1565	210.147328045711	146
4	1600	215.121733773798	147
4	1600	215.121733773798	148
4	1600	215.121733773798	149
4	1623	216.354962000468	150
4	1623	216.354962000468	151
4	1623	216.354962000468	152
4	1646	218.297667804783	153
4	1646	218.297667804783	154
4	1646	218.297667804783	155
4	1669	219.967586677502	156
4	1669	219.967586677502	157
4	1669	219.967586677502	158
4	1692	221.610694107781	159
4	1692	221.610694107781	160
4	1692	221.610694107781	161
4	1725	228.278261493629	162
4	1725	228.278261493629	163
4	1725	228.278261493629	164
4	1748	229.790418722615	165
4	1748	229.790418722615	166
4	1748	229.790418722615	167
4	1779	235.425533660956	168
4	1779	235.425533660956	169
4	1779	235.425533660956	170
4	1801	236.650979938066	171
4	1801	236.650979938066	172
4	1801	236.650979938066	173
4	1825	237.909385106787	174
4	1825	237.909385106787	175
4	1825	237.909385106787	176
5	36	6.414407212985	0
5	36	6.414407212985	1
5	36	6.414407212985	2
5	36	6.414407212985	3
5	78	14.173144754463	4
5	78	14.173144754463	5
5	78	14.173144754463	6
5	78	14.173144754463	7
5	98	15.590646957629	8
5	98	15.590646957629	9
5	98	15.590646957629	10
5	98	15.590646957629	11
5	122	17.261682275612	12
5	122	17.261682275612	13
5	122	17.261682275612	14
5	122	17.261682275612	15
5	152	19.843371249896	16
5	152	19.843371249896	17
5	152	19.843371249896	18
5	152	19.843371249896	19
5	179	21.597148246543	20
5	179	21.597148246543	21
5	179	21.597148246543	22
5	179	21.597148246543	23
5	204	23.254528889942	24
5	204	23.254528889942	25
5	204	23.254528889942	26
5	204	23.254528889942	27
5	249	33.603968223461	28
5	249	33.603968223461	29
5	249	33.603968223461	30
5	249	33.603968223461	31
5	290	36.439262810455	32
5	290	36.439262810455	33
5	290	36.439262810455	34
5	290	36.439262810455	35
5	313	39.542118108055	36
5	313	39.542118108055	37
5	313	39.542118108055	38
5	313	39.542118108055	39
5	330	41.412252106423	40
5	330	41.412252106423	41
5	330	41.412252106423	42
5	330	41.412252106423	43
5	362	43.959024155804	44
5	362	43.959024155804	45
5	362	43.959024155804	46
5	362	43.959024155804	47
5	382	47.654636333031	48
5	382	47.654636333031	49
5	382	47.654636333031	50
5	382	47.654636333031	51
5	429	56.266491464276	52
5	429	56.266491464276	53
5	429	56.266491464276	54
5	429	56.266491464276	55
5	448	59.919841674781	56
5	448	59.919841674781	57
5	448	59.919841674781	58
5	448	59.919841674781	59
5	472	64.511788566477	60
5	472	64.511788566477	61
5	472	64.511788566477	62
5	472	64.511788566477	63
5	504	67.202550384675	64
5	504	67.202550384675	65
5	504	67.202550384675	66
5	504	67.202550384675	67
5	516	68.607505272321	68
5	516	68.607505272321	69
5	516	68.607505272321	70
5	516	68.607505272321	71
5	539	70.601391892008	72
5	539	70.601391892008	73
5	539	70.601391892008	74
5	539	70.601391892008	75
5	555	72.125678728637	76
5	555	72.125678728637	77
5	555	72.125678728637	78
5	555	72.125678728637	79
5	581	73.824495940912	80
5	581	73.824495940912	81
5	581	73.824495940912	82
5	581	73.824495940912	83
5	600	75.722363249011	84
5	600	75.722363249011	85
5	600	75.722363249011	86
5	600	75.722363249011	87
5	627	76.76370150026	88
5	627	76.76370150026	89
5	627	76.76370150026	90
5	627	76.76370150026	91
5	648	83.688616401821	92
5	648	83.688616401821	93
5	648	83.688616401821	94
5	648	83.688616401821	95
5	687	86.591006418092	96
5	687	86.591006418092	97
5	687	86.591006418092	98
5	687	86.591006418092	99
5	711	87.669328731338	100
5	711	87.669328731338	101
5	711	87.669328731338	102
5	711	87.669328731338	103
5	733	91.597723443418	104
5	733	91.597723443418	105
5	733	91.597723443418	106
5	733	91.597723443418	107
5	748	93.51573635775	108
5	748	93.51573635775	109
5	748	93.51573635775	110
5	748	93.51573635775	111
5	779	96.316110816256	112
5	779	96.316110816256	113
5	779	96.316110816256	114
5	779	96.316110816256	115
5	814	99.669009818306	116
5	814	99.669009818306	117
5	814	99.669009818306	118
5	814	99.669009818306	119
5	829	101.157276979666	120
5	829	101.157276979666	121
5	829	101.157276979666	122
5	829	101.157276979666	123
5	851	102.740096735859	124
5	851	102.740096735859	125
5	851	102.740096735859	126
5	851	102.740096735859	127
5	873	109.113663752967	128
5	873	109.113663752967	129
5	873	109.113663752967	130
5	873	109.113663752967	131
5	896	111.087397720336	132
5	896	111.087397720336	133
5	896	111.087397720336	134
5	896	111.087397720336	135
5	911	112.663302183936	136
5	911	112.663302183936	137
5	911	112.663302183936	138
5	911	112.663302183936	139
5	934	114.397092898004	140
5	934	114.397092898004	141
5	934	114.397092898004	142
5	934	114.397092898004	143
5	964	116.084318325044	144
5	964	116.084318325044	145
5	964	116.084318325044	146
5	964	116.084318325044	147
5	989	125.036558576154	148
5	989	125.036558576154	149
5	989	125.036558576154	150
5	989	125.036558576154	151
5	1009	126.897484778188	152
5	1009	126.897484778188	153
5	1009	126.897484778188	154
5	1009	126.897484778188	155
5	1033	131.976281662028	156
5	1033	131.976281662028	157
5	1033	131.976281662028	158
5	1033	131.976281662028	159
5	1068	135.850697482448	160
5	1068	135.850697482448	161
5	1068	135.850697482448	162
5	1068	135.850697482448	163
5	1092	139.571629546943	164
5	1092	139.571629546943	165
5	1092	139.571629546943	166
5	1092	139.571629546943	167
5	1155	154.327750253979	168
5	1155	154.327750253979	169
5	1155	154.327750253979	170
5	1155	154.327750253979	171
5	1184	161.479836601171	172
5	1184	161.479836601171	173
5	1184	161.479836601171	174
5	1184	161.479836601171	175
5	1212	164.058789548808	176
5	1212	164.058789548808	177
5	1212	164.058789548808	178
5	1212	164.058789548808	179
5	1234	165.316924050471	180
5	1234	165.316924050471	181
5	1234	165.316924050471	182
5	1234	165.316924050471	183
5	1266	171.487088396746	184
5	1266	171.487088396746	185
5	1266	171.487088396746	186
5	1266	171.487088396746	187
5	1306	177.772655254777	188
5	1306	177.772655254777	189
5	1306	177.772655254777	190
5	1306	177.772655254777	191
5	1328	182.507455493164	192
5	1328	182.507455493164	193
5	1328	182.507455493164	194
5	1328	182.507455493164	195
5	1353	183.687509451646	196
5	1353	183.687509451646	197
5	1353	183.687509451646	198
5	1353	183.687509451646	199
5	1392	188.592932065905	200
5	1392	188.592932065905	201
5	1392	188.592932065905	202
5	1392	188.592932065905	203
5	1414	192.281282918872	204
5	1414	192.281282918872	205
5	1414	192.281282918872	206
5	1414	192.281282918872	207
5	1429	193.668103504041	208
5	1429	193.668103504041	209
5	1429	193.668103504041	210
5	1429	193.668103504041	211
5	1454	198.419670922422	212
5	1454	198.419670922422	213
5	1454	198.419670922422	214
5	1454	198.419670922422	215
5	1481	199.542278614124	216
5	1481	199.542278614124	217
5	1481	199.542278614124	218
5	1481	199.542278614124	219
5	1503	203.999218498054	220
5	1503	203.999218498054	221
5	1503	203.999218498054	222
5	1503	203.999218498054	223
5	1528	206.823123261106	224
5	1528	206.823123261106	225
5	1528	206.823123261106	226
5	1528	206.823123261106	227
5	1554	210.124246073854	228
5	1554	210.124246073854	229
5	1554	210.124246073854	230
5	1554	210.124246073854	231
5	1582	213.525149433091	232
5	1582	213.525149433091	233
5	1582	213.525149433091	234
5	1582	213.525149433091	235
5	1594	215.109683468991	236
5	1594	215.109683468991	237
5	1594	215.109683468991	238
5	1594	215.109683468991	239
5	1617	216.340199784208	240
5	1617	216.340199784208	241
5	1617	216.340199784208	242
5	1617	216.340199784208	243
5	1640	218.281488229951	244
5	1640	218.281488229951	245
5	1640	218.281488229951	246
5	1640	218.281488229951	247
5	1663	219.94505759773	248
5	1663	219.94505759773	249
5	1663	219.94505759773	250
5	1663	219.94505759773	251
5	1686	221.600173417215	252
5	1686	221.600173417215	253
5	1686	221.600173417215	254
5	1686	221.600173417215	255
5	1720	228.263381011458	256
5	1720	228.263381011458	257
5	1720	228.263381011458	258
5	1720	228.263381011458	259
5	1739	229.758424534781	260
5	1739	229.758424534781	261
5	1739	229.758424534781	262
5	1739	229.758424534781	263
5	1775	235.422682194521	264
5	1775	235.422682194521	265
5	1775	235.422682194521	266
5	1775	235.422682194521	267
5	1804	236.65409481664	268
5	1804	236.65409481664	269
5	1804	236.65409481664	270
5	1804	236.65409481664	271
5	1819	237.890588398989	272
5	1819	237.890588398989	273
5	1819	237.890588398989	274
5	1819	237.890588398989	275
6	39	6.419224371062	0
6	90	14.199473561783	1
6	106	15.612895641938	2
6	299	36.455702754541	3
6	370	43.973812641177	4
6	460	59.944800355541	5
6	503	67.202155333194	6
6	566	72.168775920748	7
6	589	73.847634744867	8
6	612	75.752338585294	9
6	817	99.678706078031	10
6	888	109.171559252259	11
6	1001	125.066892482875	12
6	1021	126.935745267185	13
6	1044	131.998013328057	14
6	1076	135.89521100167	15
6	1104	139.635947814559	16
6	1166	154.350845325701	17
6	1279	171.51424198567	18
6	1466	198.43455517491	19
6	1491	199.562340442663	20
6	1515	204.021564034888	21
6	1543	206.851325408591	22
6	1568	210.157328045711	23
6	1651	218.307667804783	24
6	1675	219.977586677502	25
6	1697	221.620694107781	26
6	1788	235.435533660956	27

