version 2
run General-3-20231008-05:38:31-14492
attr configname General
attr datetime 20231008-05:38:31
attr experiment General
attr inifile omnetpp.ini
attr iterationvars ""
attr iterationvarsf ""
attr measurement ""
attr network Reliability
attr processid 14492
attr repetition 3
attr replication #3
attr resultdir results
attr runnumber 3
attr seedset 3
param Reliability.node[*].transmissionTime "uniform(1s, 2s)"
param Reliability.node[*].delayTime "uniform(0.01s, 0.2s)"
param Reliability.node[*].processingTime exponential(0.01s)
param Reliability.node[*].lossProbability 0.5

vector 0 Reliability.node[0] txVector ETV
vector 1 Reliability.node[1] txVector ETV
vector 2 Reliability.node[3] txVector ETV
vector 3 Reliability.node[2] txVector ETV
vector 4 Reliability.node[4] txVector ETV
vector 5 Reliability.node[5] rxVector ETV
0	1	0.114651601831	0
0	10	1.185376482154	1
0	12	3.081669573276	2
0	14	4.207254889258	3
0	16	5.414497767878	4
0	18	6.465964975837	5
0	24	7.906774814311	6
0	26	9.555918865908	7
0	28	10.834406149877	8
0	30	12.510661053309	9
0	39	14.101523864386	10
0	41	15.654295812897	11
0	47	16.960656439956	12
0	63	18.415264204913	13
0	69	19.740570382052	14
0	71	21.165271991934	15
0	80	22.578990675579	16
0	89	23.985510592652	17
0	101	25.639141445118	18
0	103	27.399719935446	19
0	112	28.463489737199	20
0	128	30.171176361223	21
0	134	31.496983522154	22
0	140	32.739658943681	23
0	142	34.431136453362	24
0	144	36.081613315107	25
0	153	37.805552451709	26
0	155	39.082875500736	27
0	157	40.258937615971	28
0	159	42.249238804518	29
0	161	43.94188942092	30
0	170	45.694029450952	31
0	172	47.235049124178	32
0	188	48.942229726887	33
0	204	50.602555629401	34
0	220	52.387492328719	35
0	229	53.872586552123	36
0	235	55.482232266874	37
0	237	57.482207730715	38
0	239	58.750155485538	39
0	241	60.007361863577	40
0	257	61.284003410326	41
0	259	62.775818958483	42
0	261	63.905477342499	43
0	277	65.765530805407	44
0	279	67.105536730565	45
0	295	68.802286718344	46
0	311	69.89716805222	47
0	327	71.576051093475	48
0	329	73.289655637532	49
0	335	74.528091935278	50
0	337	76.456590781757	51
0	353	77.819667061395	52
0	359	79.61342933292	53
0	375	80.719088537455	54
0	384	81.941464857035	55
0	393	83.91941726983	56
0	395	85.820188074908	57
0	401	87.181271849968	58
0	403	88.464961299742	59
0	409	89.677855635364	60
0	411	91.670779192424	61
0	413	93.104313483764	62
0	419	94.721018770546	63
0	431	96.17533055141	64
0	433	97.206259747803	65
0	435	98.43835813722	66
0	437	99.451113628525	67
0	439	100.725751098081	68
0	441	102.667665461612	69
0	443	103.944433377891	70
0	456	105.020221582682	71
0	465	106.459643110235	72
0	477	108.093946579912	73
0	486	109.27248541389	74
0	495	110.689752310583	75
0	497	111.760122069925	76
0	503	113.599025477491	77
0	519	115.132620412459	78
0	535	116.928946428069	79
0	547	117.955978302819	80
0	563	119.630308677976	81
0	579	120.835948229835	82
0	581	122.375820374184	83
0	597	124.239071983213	84
0	613	125.51160543279	85
0	622	126.927204643443	86
0	624	128.01669963875	87
0	633	129.448624956023	88
0	635	130.857214800149	89
0	651	132.021814348243	90
0	660	133.918975194052	91
0	662	135.064570224445	92
0	664	136.602004600756	93
0	673	138.597790909533	94
0	689	139.672515817753	95
0	705	141.082089047947	96
0	721	142.168332665528	97
0	734	144.05710554316	98
0	740	145.385171285666	99
0	742	146.407403174158	100
0	744	148.0677502305	101
0	760	149.237740248044	102
0	762	150.390203508849	103
0	764	152.295468409846	104
0	766	153.308551219825	105
0	768	155.195035630904	106
0	770	156.487292410407	107
0	772	157.869117450269	108
0	785	159.847522599224	109
0	787	161.559577031594	110
0	789	162.934639147317	111
0	791	164.498460896846	112
0	793	166.429082409313	113
0	799	168.192502342464	114
0	808	169.704925934385	115
0	821	171.129041834568	116
0	830	172.202725496442	117
0	839	173.729687753665	118
0	841	175.49147399149	119
0	847	176.74016392354	120
0	849	178.664030645574	121
0	862	179.703824798642	122
0	864	181.309035423044	123
0	866	183.162446645386	124
0	882	185.125369852008	125
0	898	186.267255278835	126
0	900	188.001184262866	127
0	902	189.43013739313	128
0	904	190.810978505127	129
0	913	192.555583265209	130
0	922	194.187073222193	131
0	924	196.046505842888	132
0	933	197.219247640408	133
0	942	198.516839076829	134
0	958	200.145153495547	135
0	967	201.273562572262	136
0	973	202.376039339293	137
0	975	203.772939004766	138
0	977	205.096773097122	139
0	979	206.571729942521	140
0	985	208.438738174567	141
0	987	210.283551647857	142
0	996	211.776049083395	143
0	1012	212.855661811603	144
0	1018	214.756676360795	145
0	1020	216.635484956734	146
0	1033	217.653462409105	147
0	1035	218.835709753509	148
0	1037	220.545303346652	149
0	1039	222.215325681323	150
0	1041	223.653360517293	151
0	1043	225.150428046303	152
0	1056	227.08988593106	153
0	1058	228.644199528329	154
0	1060	229.665659280557	155
0	1062	231.157323178433	156
0	1068	233.000740023626	157
0	1070	234.275395026028	158
0	1082	235.668936473613	159
0	1084	236.953176658896	160
0	1086	238.388258702883	161
1	3	0.14297423212	0
1	3	0.14297423212	1
1	3	0.14297423212	2
1	20	6.476268291834	3
1	20	6.476268291834	4
1	20	6.476268291834	5
1	32	12.520903794613	6
1	32	12.520903794613	7
1	32	12.520903794613	8
1	43	15.673129692342	9
1	43	15.673129692342	10
1	43	15.673129692342	11
1	49	16.984830792215	12
1	49	16.984830792215	13
1	49	16.984830792215	14
1	65	18.441815317281	15
1	65	18.441815317281	16
1	65	18.441815317281	17
1	73	21.190743127552	18
1	73	21.190743127552	19
1	73	21.190743127552	20
1	82	22.595319482899	21
1	82	22.595319482899	22
1	82	22.595319482899	23
1	91	24.006378010855	24
1	91	24.006378010855	25
1	91	24.006378010855	26
1	105	27.428111035216	27
1	105	27.428111035216	28
1	105	27.428111035216	29
1	114	28.487223369397	30
1	114	28.487223369397	31
1	114	28.487223369397	32
1	130	30.187066846765	33
1	130	30.187066846765	34
1	130	30.187066846765	35
1	136	31.542598102331	36
1	136	31.542598102331	37
1	136	31.542598102331	38
1	146	36.098058573158	39
1	146	36.098058573158	40
1	146	36.098058573158	41
1	163	43.953124853501	42
1	163	43.953124853501	43
1	163	43.953124853501	44
1	174	47.248112836094	45
1	174	47.248112836094	46
1	174	47.248112836094	47
1	190	48.976760930626	48
1	190	48.976760930626	49
1	190	48.976760930626	50
1	206	50.648346327782	51
1	206	50.648346327782	52
1	206	50.648346327782	53
1	222	52.403567150706	54
1	222	52.403567150706	55
1	222	52.403567150706	56
1	231	53.883871903841	57
1	231	53.883871903841	58
1	231	53.883871903841	59
1	243	60.020261931443	60
1	243	60.020261931443	61
1	243	60.020261931443	62
1	263	63.917941437437	63
1	263	63.917941437437	64
1	263	63.917941437437	65
1	281	67.129336184934	66
1	281	67.129336184934	67
1	281	67.129336184934	68
1	297	68.81749377748	69
1	297	68.81749377748	70
1	297	68.81749377748	71
1	313	69.916933864804	72
1	313	69.916933864804	73
1	313	69.916933864804	74
1	331	73.311617855555	75
1	331	73.311617855555	76
1	331	73.311617855555	77
1	339	76.482688027649	78
1	339	76.482688027649	79
1	339	76.482688027649	80
1	355	77.834462412432	81
1	355	77.834462412432	82
1	355	77.834462412432	83
1	361	79.629209724794	84
1	361	79.629209724794	85
1	361	79.629209724794	86
1	377	80.733500688706	87
1	377	80.733500688706	88
1	377	80.733500688706	89
1	386	81.958451501718	90
1	386	81.958451501718	91
1	386	81.958451501718	92
1	397	85.851735302217	93
1	397	85.851735302217	94
1	397	85.851735302217	95
1	405	88.480413167307	96
1	405	88.480413167307	97
1	405	88.480413167307	98
1	415	93.152982668053	99
1	415	93.152982668053	100
1	415	93.152982668053	101
1	421	94.736096023414	102
1	421	94.736096023414	103
1	421	94.736096023414	104
1	445	103.957640282479	105
1	445	103.957640282479	106
1	445	103.957640282479	107
1	458	105.034873420273	108
1	458	105.034873420273	109
1	458	105.034873420273	110
1	467	106.483941023857	111
1	467	106.483941023857	112
1	467	106.483941023857	113
1	479	108.11860574478	114
1	479	108.11860574478	115
1	479	108.11860574478	116
1	488	109.282528169569	117
1	488	109.282528169569	118
1	488	109.282528169569	119
1	499	111.78184281235	120
1	499	111.78184281235	121
1	499	111.78184281235	122
1	505	113.62763316388	123
1	505	113.62763316388	124
1	505	113.62763316388	125
1	521	115.143738016405	126
1	521	115.143738016405	127
1	521	115.143738016405	128
1	537	116.939490726154	129
1	537	116.939490726154	130
1	537	116.939490726154	131
1	549	117.989876960999	132
1	549	117.989876960999	133
1	549	117.989876960999	134
1	565	119.642945520327	135
1	565	119.642945520327	136
1	565	119.642945520327	137
1	583	122.394796878684	138
1	583	122.394796878684	139
1	583	122.394796878684	140
1	599	124.258983261611	141
1	599	124.258983261611	142
1	599	124.258983261611	143
1	615	125.530070718509	144
1	615	125.530070718509	145
1	615	125.530070718509	146
1	626	128.027776985691	147
1	626	128.027776985691	148
1	626	128.027776985691	149
1	637	130.871737624996	150
1	637	130.871737624996	151
1	637	130.871737624996	152
1	653	132.043264054734	153
1	653	132.043264054734	154
1	653	132.043264054734	155
1	666	136.612507605252	156
1	666	136.612507605252	157
1	666	136.612507605252	158
1	675	138.612837061942	159
1	675	138.612837061942	160
1	675	138.612837061942	161
1	691	139.691698709576	162
1	691	139.691698709576	163
1	691	139.691698709576	164
1	707	141.096284879942	165
1	707	141.096284879942	166
1	707	141.096284879942	167
1	723	142.179196875865	168
1	723	142.179196875865	169
1	723	142.179196875865	170
1	736	144.071336033165	171
1	736	144.071336033165	172
1	736	144.071336033165	173
1	746	148.086995986637	174
1	746	148.086995986637	175
1	746	148.086995986637	176
1	774	157.884856448874	177
1	774	157.884856448874	178
1	774	157.884856448874	179
1	795	166.445451359564	180
1	795	166.445451359564	181
1	795	166.445451359564	182
1	801	168.213473989413	183
1	801	168.213473989413	184
1	801	168.213473989413	185
1	810	169.72101311845	186
1	810	169.72101311845	187
1	810	169.72101311845	188
1	823	171.146569449233	189
1	823	171.146569449233	190
1	823	171.146569449233	191
1	832	172.216903049174	192
1	832	172.216903049174	193
1	832	172.216903049174	194
1	843	175.507391442333	195
1	843	175.507391442333	196
1	843	175.507391442333	197
1	851	178.695987732006	198
1	851	178.695987732006	199
1	851	178.695987732006	200
1	868	183.176903504097	201
1	868	183.176903504097	202
1	868	183.176903504097	203
1	884	185.14733414681	204
1	884	185.14733414681	205
1	884	185.14733414681	206
1	906	190.822119727405	207
1	906	190.822119727405	208
1	906	190.822119727405	209
1	915	192.577028524406	210
1	915	192.577028524406	211
1	915	192.577028524406	212
1	926	196.071842213974	213
1	926	196.071842213974	214
1	926	196.071842213974	215
1	935	197.271864697448	216
1	935	197.271864697448	217
1	935	197.271864697448	218
1	944	198.529240960016	219
1	944	198.529240960016	220
1	944	198.529240960016	221
1	960	200.162296648784	222
1	960	200.162296648784	223
1	960	200.162296648784	224
1	969	201.296160291784	225
1	969	201.296160291784	226
1	969	201.296160291784	227
1	981	206.610176530978	228
1	981	206.610176530978	229
1	981	206.610176530978	230
1	989	210.296684748466	231
1	989	210.296684748466	232
1	989	210.296684748466	233
1	998	211.804281930194	234
1	998	211.804281930194	235
1	998	211.804281930194	236
1	1014	212.875239069993	237
1	1014	212.875239069993	238
1	1014	212.875239069993	239
1	1022	216.656824426559	240
1	1022	216.656824426559	241
1	1022	216.656824426559	242
1	1045	225.199121994905	243
1	1045	225.199121994905	244
1	1045	225.199121994905	245
1	1064	231.173715207732	246
1	1064	231.173715207732	247
1	1064	231.173715207732	248
1	1072	234.30990854525	249
1	1072	234.30990854525	250
1	1072	234.30990854525	251
2	7	0.161397929952	0
2	7	0.161397929952	1
2	60	17.023606924769	2
2	60	17.023606924769	3
2	86	22.608769668251	4
2	86	22.608769668251	5
2	95	24.019635000754	6
2	95	24.019635000754	7
2	118	28.501025503724	8
2	118	28.501025503724	9
2	167	43.974079763379	10
2	167	43.974079763379	11
2	178	47.266582459308	12
2	178	47.266582459308	13
2	201	49.02010922655	14
2	201	49.02010922655	15
2	211	50.664683443963	16
2	211	50.664683443963	17
2	226	52.415517734593	18
2	226	52.415517734593	19
2	247	60.033474740717	20
2	247	60.033474740717	21
2	267	63.929805137328	22
2	267	63.929805137328	23
2	285	67.141056337362	24
2	285	67.141056337362	25
2	302	68.832933858051	26
2	302	68.832933858051	27
2	324	69.967941493079	28
2	324	69.967941493079	29
2	343	76.495963275909	30
2	343	76.495963275909	31
2	372	79.668876829514	32
2	372	79.668876829514	33
2	428	94.762126520607	34
2	428	94.762126520607	35
2	474	106.521425399771	36
2	474	106.521425399771	37
2	483	108.129287140178	38
2	483	108.129287140178	39
2	492	109.304771835822	40
2	492	109.304771835822	41
2	512	113.657086916993	42
2	512	113.657086916993	43
2	525	115.159906704239	44
2	525	115.159906704239	45
2	544	116.972926096464	46
2	544	116.972926096464	47
2	553	118.006360451483	48
2	553	118.006360451483	49
2	569	119.655824860569	50
2	569	119.655824860569	51
2	587	122.406148632398	52
2	587	122.406148632398	53
2	604	124.278958597894	54
2	604	124.278958597894	55
2	619	125.552085559737	56
2	619	125.552085559737	57
2	630	128.037798263921	58
2	630	128.037798263921	59
2	641	130.891085831913	60
2	641	130.891085831913	61
2	657	132.067119818806	62
2	657	132.067119818806	63
2	670	136.636009674304	64
2	670	136.636009674304	65
2	679	138.626971717746	66
2	679	138.626971717746	67
2	695	139.707036564698	68
2	695	139.707036564698	69
2	711	141.106807980378	70
2	711	141.106807980378	71
2	727	142.208242551987	72
2	727	142.208242551987	73
2	751	148.10255709809	74
2	751	148.10255709809	75
2	805	168.226427171783	76
2	805	168.226427171783	77
2	827	171.157508078587	78
2	827	171.157508078587	79
2	836	172.227756348791	80
2	836	172.227756348791	81
2	855	178.70698017005	82
2	855	178.70698017005	83
2	879	183.258856152011	84
2	879	183.258856152011	85
2	888	185.165979738252	86
2	888	185.165979738252	87
2	939	197.291074734465	88
2	939	197.291074734465	89
2	955	198.571648141021	90
2	955	198.571648141021	91
2	964	200.17647574636	92
2	964	200.17647574636	93
2	993	210.317018655187	94
2	993	210.317018655187	95
2	1002	211.821881672952	96
2	1002	211.821881672952	97
2	1079	234.342903500754	98
2	1079	234.342903500754	99
3	36	12.567266008529	0
3	36	12.567266008529	1
3	53	16.99848886498	2
3	53	16.99848886498	3
3	77	21.20523047794	4
3	77	21.20523047794	5
3	96	24.019711611747	6
3	96	24.019711611747	7
3	109	27.444719491273	8
3	109	27.444719491273	9
3	121	28.513744852587	10
3	121	28.513744852587	11
3	150	36.1103774667	12
3	150	36.1103774667	13
3	179	47.275248646054	14
3	179	47.275248646054	15
3	194	48.990093408242	16
3	194	48.990093408242	17
3	210	50.66043196691	18
3	210	50.66043196691	19
3	248	60.036781567286	20
3	248	60.036781567286	21
3	270	63.946109898355	22
3	270	63.946109898355	23
3	288	67.152848639119	24
3	288	67.152848639119	25
3	301	68.831259917489	26
3	301	68.831259917489	27
3	317	69.929227238858	28
3	317	69.929227238858	29
3	344	76.496466327562	30
3	344	76.496466327562	31
3	365	79.643411866094	32
3	365	79.643411866094	33
3	381	80.750773611512	34
3	381	80.750773611512	35
3	390	81.971495408562	36
3	390	81.971495408562	37
3	425	94.749318875552	38
3	425	94.749318875552	39
3	449	103.976271654029	40
3	449	103.976271654029	41
3	462	105.059868589929	42
3	462	105.059868589929	43
3	471	106.499222779989	44
3	471	106.499222779989	45
3	509	113.643901012163	46
3	509	113.643901012163	47
3	526	115.164872339512	48
3	526	115.164872339512	49
3	541	116.952393317404	50
3	541	116.952393317404	51
3	554	118.013169456339	52
3	554	118.013169456339	53
3	572	119.675554149996	54
3	572	119.675554149996	55
3	588	122.412429057265	56
3	588	122.412429057265	57
3	603	124.269861531544	58
3	603	124.269861531544	59
3	648	130.938317972033	60
3	648	130.938317972033	61
3	686	138.67925951914	62
3	686	138.67925951914	63
3	702	139.728949870482	64
3	702	139.728949870482	65
3	718	141.131858716369	66
3	718	141.131858716369	67
3	750	148.10253600532	68
3	750	148.10253600532	69
3	778	157.906992560186	70
3	778	157.906992560186	71
3	814	169.739023582594	72
3	814	169.739023582594	73
3	872	183.191357151305	74
3	872	183.191357151305	75
3	889	185.168158558286	76
3	889	185.168158558286	77
3	910	190.847841451957	78
3	910	190.847841451957	79
3	919	192.588157579455	80
3	919	192.588157579455	81
3	930	196.08217497488	82
3	930	196.08217497488	83
3	948	198.542377923527	84
3	948	198.542377923527	85
3	1009	211.878840013828	86
3	1009	211.878840013828	87
3	1026	216.67061767342	88
3	1026	216.67061767342	89
3	1049	225.223502184941	90
3	1049	225.223502184941	91
3	1076	234.321093704291	92
3	1076	234.321093704291	93
4	56	17.0133986253	0
4	56	17.0133986253	1
4	56	17.0133986253	2
4	122	28.522055768042	3
4	122	28.522055768042	4
4	122	28.522055768042	5
4	182	47.283126339522	6
4	182	47.283126339522	7
4	182	47.283126339522	8
4	197	49.007976399541	9
4	197	49.007976399541	10
4	197	49.007976399541	11
4	216	50.677143343663	12
4	216	50.677143343663	13
4	216	50.677143343663	14
4	253	60.097386032083	15
4	253	60.097386032083	16
4	253	60.097386032083	17
4	273	63.962471254666	18
4	273	63.962471254666	19
4	273	63.962471254666	20
4	289	67.154733461238	21
4	289	67.154733461238	22
4	289	67.154733461238	23
4	307	68.859670702841	24
4	307	68.859670702841	25
4	307	68.859670702841	26
4	320	69.956821873564	27
4	320	69.956821873564	28
4	320	69.956821873564	29
4	349	76.516768623002	30
4	349	76.516768623002	31
4	349	76.516768623002	32
4	368	79.658689741681	33
4	368	79.658689741681	34
4	368	79.658689741681	35
4	452	103.991230334789	36
4	452	103.991230334789	37
4	452	103.991230334789	38
4	515	113.672300344094	39
4	515	113.672300344094	40
4	515	113.672300344094	41
4	529	115.174066897448	42
4	529	115.174066897448	43
4	529	115.174066897448	44
4	557	118.022008311718	45
4	557	118.022008311718	46
4	557	118.022008311718	47
4	575	119.702691117876	48
4	575	119.702691117876	49
4	575	119.702691117876	50
4	593	122.438092398439	51
4	593	122.438092398439	52
4	593	122.438092398439	53
4	607	124.288327677099	54
4	607	124.288327677099	55
4	607	124.288327677099	56
4	644	130.923291698983	57
4	644	130.923291698983	58
4	644	130.923291698983	59
4	682	138.665006895789	60
4	682	138.665006895789	61
4	682	138.665006895789	62
4	698	139.71852480678	63
4	698	139.71852480678	64
4	698	139.71852480678	65
4	714	141.116875147639	66
4	714	141.116875147639	67
4	714	141.116875147639	68
4	730	142.227900704486	69
4	730	142.227900704486	70
4	730	142.227900704486	71
4	756	148.115989568932	72
4	756	148.115989568932	73
4	756	148.115989568932	74
4	781	157.918688581287	75
4	781	157.918688581287	76
4	781	157.918688581287	77
4	817	169.763317350713	78
4	817	169.763317350713	79
4	817	169.763317350713	80
4	858	178.718937459821	81
4	858	178.718937459821	82
4	858	178.718937459821	83
4	875	183.210960652719	84
4	875	183.210960652719	85
4	875	183.210960652719	86
4	894	185.194534172024	87
4	894	185.194534172024	88
4	894	185.194534172024	89
4	951	198.556280070167	90
4	951	198.556280070167	91
4	951	198.556280070167	92
4	1005	211.853909515769	93
4	1005	211.853909515769	94
4	1005	211.853909515769	95
4	1029	216.693732903376	96
4	1029	216.693732903376	97
4	1029	216.693732903376	98
4	1052	225.24931235128	99
4	1052	225.24931235128	100
4	1052	225.24931235128	101
5	59	17.0233986253	0
5	127	28.532055768042	1
5	187	47.293126339522	2
5	310	68.869670702841	3
5	323	69.966821873564	4
5	352	76.526768623002	5
5	518	113.682300344094	6
5	534	115.184066897448	7
5	562	118.032008311718	8
5	578	119.712691117876	9
5	596	122.448092398439	10
5	612	124.298327677099	11
5	647	130.933291698983	12
5	685	138.675006895789	13
5	717	141.126875147639	14
5	820	169.773317350713	15
5	878	183.220960652719	16
5	897	185.204534172024	17
5	954	198.566280070167	18
5	1055	225.25931235128	19

