version 2
run General-2-20231008-05:38:31-14492
attr configname General
attr datetime 20231008-05:38:31
attr experiment General
attr inifile omnetpp.ini
attr iterationvars ""
attr iterationvarsf ""
attr measurement ""
attr network Reliability
attr processid 14492
attr repetition 2
attr replication #2
attr resultdir results
attr runnumber 2
attr seedset 2
param Reliability.node[*].transmissionTime "uniform(1s, 2s)"
param Reliability.node[*].delayTime "uniform(0.01s, 0.2s)"
param Reliability.node[*].processingTime exponential(0.01s)
param Reliability.node[*].lossProbability 0.5

vector 0 Reliability.node[0] txVector ETV
vector 1 Reliability.node[1] txVector ETV
vector 2 Reliability.node[2] txVector ETV
vector 3 Reliability.node[4] txVector ETV
vector 4 Reliability.node[5] rxVector ETV
vector 5 Reliability.node[3] txVector ETV
0	1	0.092839031499	0
0	3	1.277921112972	1
0	9	3.20946197656	2
0	11	4.52999841284	3
0	13	5.684425088363	4
0	19	7.383287777677	5
0	35	9.016025508307	6
0	44	10.423333340809	7
0	46	11.851455671964	8
0	48	12.947986593488	9
0	50	14.075146565232	10
0	59	15.671891873255	11
0	61	16.839715187689	12
0	63	18.207186556672	13
0	79	19.675860139094	14
0	88	21.528141172155	15
0	90	23.095285299718	16
0	106	24.52283126397	17
0	115	26.373681765999	18
0	131	28.261985512468	19
0	133	29.584859729529	20
0	135	31.346789728402	21
0	147	33.279418289213	22
0	153	34.673351580527	23
0	155	36.401850082929	24
0	164	37.757603706809	25
0	173	39.419805728847	26
0	179	40.831552169535	27
0	181	42.213245108042	28
0	183	44.17570468366	29
0	199	45.822718909493	30
0	212	47.791009481781	31
0	214	49.011847398727	32
0	227	50.930306039535	33
0	243	52.848024761322	34
0	245	54.125463976543	35
0	247	56.061712019862	36
0	249	57.525454627834	37
0	251	59.37774358808	38
0	253	60.590510959057	39
0	259	61.590634543234	40
0	261	63.105493710394	41
0	263	64.985484061548	42
0	265	66.770275984443	43
0	267	68.300097160292	44
0	269	69.573935029813	45
0	282	70.600319175999	46
0	284	71.761785742845	47
0	300	73.631931636035	48
0	302	74.719494145149	49
0	311	75.750083623007	50
0	313	76.840454000998	51
0	315	78.198694308772	52
0	324	79.217679436802	53
0	326	80.837320898212	54
0	335	82.12774764399	55
0	337	84.000874984096	56
0	339	85.485928750382	57
0	345	87.229790780478	58
0	347	88.965142174641	59
0	349	90.150731910736	60
0	362	91.28282366881	61
0	378	92.764281826577	62
0	384	93.789483250136	63
0	390	95.451451038028	64
0	406	96.839785215928	65
0	408	97.844448736653	66
0	410	99.262284982967	67
0	426	100.825661092548	68
0	428	102.172291113314	69
0	430	103.380793607811	70
0	432	105.248175149335	71
0	448	107.040505365719	72
0	450	108.083634402621	73
0	466	109.190821802727	74
0	472	110.41943205336	75
0	474	112.356213127979	76
0	476	113.998665553535	77
0	478	115.385565898631	78
0	480	117.240685566113	79
0	482	118.621478147124	80
0	498	119.799787973072	81
0	500	121.562123220898	82
0	502	122.682163013164	83
0	504	124.521065610712	84
0	513	125.982804513787	85
0	515	127.956355829974	86
0	517	129.198693332979	87
0	519	130.405312084145	88
0	528	131.829721448961	89
0	530	133.005320523884	90
0	532	134.718642086508	91
0	534	136.60390576466	92
0	536	138.587044131728	93
0	542	140.239951080894	94
0	558	141.798901873892	95
0	574	143.625052690059	96
0	576	145.248437406281	97
0	578	146.601651302092	98
0	580	147.766429924891	99
0	582	149.659596110248	100
0	584	151.484486596911	101
0	590	153.011125021401	102
0	596	154.271845039233	103
0	598	155.286901173667	104
0	607	157.179807051803	105
0	616	158.75425339399	106
0	632	160.005536309929	107
0	644	161.342904600102	108
0	653	163.286075323142	109
0	655	164.651341357056	110
0	657	166.400306393646	111
0	659	167.907078232404	112
0	661	169.300482455196	113
0	663	170.55372929156	114
0	665	172.364502495408	115
0	667	174.134336685317	116
0	669	175.930051959373	117
0	675	177.106348969761	118
0	677	179.02739310709	119
0	679	180.369965772631	120
0	681	182.018744385124	121
0	683	183.221105052179	122
0	685	185.117509820985	123
0	687	186.932476087028	124
0	703	188.761031250955	125
0	719	190.412525090875	126
0	721	191.698388502721	127
0	730	193.32965589992	128
0	732	195.105453816962	129
0	745	196.138307750479	130
0	754	197.849328432719	131
0	763	199.157937359319	132
0	765	200.239816731562	133
0	771	201.729270203992	134
0	777	203.591246662217	135
0	789	205.125989653424	136
0	791	206.256854125087	137
0	800	207.470795169494	138
0	809	208.691096823917	139
0	818	210.435971976978	140
0	820	212.242307188477	141
0	829	213.276582662969	142
0	842	214.365231973606	143
0	844	216.27725075071	144
0	860	217.761304319625	145
0	862	219.324730355547	146
0	878	221.065432264026	147
0	894	222.110199223993	148
0	896	223.586187968518	149
0	898	224.923907590586	150
0	900	226.586542797297	151
0	906	227.647696561435	152
0	915	229.621564182475	153
0	917	231.561726489825	154
0	930	233.089185010897	155
0	936	235.01397324542	156
0	952	236.079683921555	157
0	954	237.655838273255	158
0	970	238.841018466301	159
1	5	1.317434556699	0
1	5	1.317434556699	1
1	5	1.317434556699	2
1	15	5.695702860092	3
1	15	5.695702860092	4
1	15	5.695702860092	5
1	21	7.410337728618	6
1	21	7.410337728618	7
1	21	7.410337728618	8
1	37	9.02797331226	9
1	37	9.02797331226	10
1	37	9.02797331226	11
1	52	14.087708554366	12
1	52	14.087708554366	13
1	52	14.087708554366	14
1	65	18.227807417796	15
1	65	18.227807417796	16
1	65	18.227807417796	17
1	81	19.692983966728	18
1	81	19.692983966728	19
1	81	19.692983966728	20
1	92	23.111025568109	21
1	92	23.111025568109	22
1	92	23.111025568109	23
1	108	24.538044655079	24
1	108	24.538044655079	25
1	108	24.538044655079	26
1	117	26.412016761335	27
1	117	26.412016761335	28
1	117	26.412016761335	29
1	137	31.369210534123	30
1	137	31.369210534123	31
1	137	31.369210534123	32
1	149	33.315529350304	33
1	149	33.315529350304	34
1	149	33.315529350304	35
1	157	36.414244505013	36
1	157	36.414244505013	37
1	157	36.414244505013	38
1	166	37.77250615267	39
1	166	37.77250615267	40
1	166	37.77250615267	41
1	175	39.439771052044	42
1	175	39.439771052044	43
1	175	39.439771052044	44
1	185	44.217368862802	45
1	185	44.217368862802	46
1	185	44.217368862802	47
1	201	45.841274477422	48
1	201	45.841274477422	49
1	201	45.841274477422	50
1	216	49.030814352852	51
1	216	49.030814352852	52
1	216	49.030814352852	53
1	229	50.940714376513	54
1	229	50.940714376513	55
1	229	50.940714376513	56
1	255	60.601485943706	57
1	255	60.601485943706	58
1	255	60.601485943706	59
1	271	69.604314849424	60
1	271	69.604314849424	61
1	271	69.604314849424	62
1	286	71.774237109492	63
1	286	71.774237109492	64
1	286	71.774237109492	65
1	304	74.733912349435	66
1	304	74.733912349435	67
1	304	74.733912349435	68
1	317	78.214673164649	69
1	317	78.214673164649	70
1	317	78.214673164649	71
1	328	80.856872632067	72
1	328	80.856872632067	73
1	328	80.856872632067	74
1	341	85.509960346309	75
1	341	85.509960346309	76
1	341	85.509960346309	77
1	351	90.16083213032	78
1	351	90.16083213032	79
1	351	90.16083213032	80
1	364	91.306621782961	81
1	364	91.306621782961	82
1	364	91.306621782961	83
1	380	92.802491299668	84
1	380	92.802491299668	85
1	380	92.802491299668	86
1	386	93.802813653917	87
1	386	93.802813653917	88
1	386	93.802813653917	89
1	392	95.487474651035	90
1	392	95.487474651035	91
1	392	95.487474651035	92
1	412	99.293205135044	93
1	412	99.293205135044	94
1	412	99.293205135044	95
1	434	105.26246763092	96
1	434	105.26246763092	97
1	434	105.26246763092	98
1	452	108.099345178729	99
1	452	108.099345178729	100
1	452	108.099345178729	101
1	468	109.21066599862	102
1	468	109.21066599862	103
1	468	109.21066599862	104
1	484	118.646695138962	105
1	484	118.646695138962	106
1	484	118.646695138962	107
1	506	124.532409858764	108
1	506	124.532409858764	109
1	506	124.532409858764	110
1	521	130.427968255041	111
1	521	130.427968255041	112
1	521	130.427968255041	113
1	538	138.603539959173	114
1	538	138.603539959173	115
1	538	138.603539959173	116
1	544	140.251949627317	117
1	544	140.251949627317	118
1	544	140.251949627317	119
1	560	141.820748562034	120
1	560	141.820748562034	121
1	560	141.820748562034	122
1	586	151.500712538326	123
1	586	151.500712538326	124
1	586	151.500712538326	125
1	592	153.026277339991	126
1	592	153.026277339991	127
1	592	153.026277339991	128
1	600	155.297196999693	129
1	600	155.297196999693	130
1	600	155.297196999693	131
1	609	157.195190959018	132
1	609	157.195190959018	133
1	609	157.195190959018	134
1	618	158.785559504619	135
1	618	158.785559504619	136
1	618	158.785559504619	137
1	634	160.045904081931	138
1	634	160.045904081931	139
1	634	160.045904081931	140
1	646	161.361043299253	141
1	646	161.361043299253	142
1	646	161.361043299253	143
1	671	175.949318927184	144
1	671	175.949318927184	145
1	671	175.949318927184	146
1	689	186.95304261142	147
1	689	186.95304261142	148
1	689	186.95304261142	149
1	705	188.772084466574	150
1	705	188.772084466574	151
1	705	188.772084466574	152
1	723	191.714912016848	153
1	723	191.714912016848	154
1	723	191.714912016848	155
1	734	195.130862168288	156
1	734	195.130862168288	157
1	734	195.130862168288	158
1	747	196.151104164059	159
1	747	196.151104164059	160
1	747	196.151104164059	161
1	756	197.871817854002	162
1	756	197.871817854002	163
1	756	197.871817854002	164
1	767	200.262818099423	165
1	767	200.262818099423	166
1	767	200.262818099423	167
1	773	201.741943264864	168
1	773	201.741943264864	169
1	773	201.741943264864	170
1	779	203.61665235235	171
1	779	203.61665235235	172
1	779	203.61665235235	173
1	793	206.27171397471	174
1	793	206.27171397471	175
1	793	206.27171397471	176
1	802	207.489070127743	177
1	802	207.489070127743	178
1	802	207.489070127743	179
1	811	208.724467519362	180
1	811	208.724467519362	181
1	811	208.724467519362	182
1	822	212.253980329273	183
1	822	212.253980329273	184
1	822	212.253980329273	185
1	831	213.289762780731	186
1	831	213.289762780731	187
1	831	213.289762780731	188
1	846	216.319074759299	189
1	846	216.319074759299	190
1	846	216.319074759299	191
1	864	219.337266400119	192
1	864	219.337266400119	193
1	864	219.337266400119	194
1	880	221.083337416236	195
1	880	221.083337416236	196
1	880	221.083337416236	197
1	902	226.601207239754	198
1	902	226.601207239754	199
1	902	226.601207239754	200
1	908	227.669676447414	201
1	908	227.669676447414	202
1	908	227.669676447414	203
1	919	231.580953220239	204
1	919	231.580953220239	205
1	919	231.580953220239	206
1	932	233.129404491289	207
1	932	233.129404491289	208
1	932	233.129404491289	209
1	938	235.027789999156	210
1	938	235.027789999156	211
1	938	235.027789999156	212
1	956	237.706055934137	213
1	956	237.706055934137	214
1	956	237.706055934137	215
2	25	7.421783131359	0
2	25	7.421783131359	1
2	41	9.045010260152	2
2	41	9.045010260152	3
2	70	18.244844176264	4
2	70	18.244844176264	5
2	97	23.127333725759	6
2	97	23.127333725759	7
2	122	26.438124066338	8
2	122	26.438124066338	9
2	142	31.386222336498	10
2	142	31.386222336498	11
2	189	44.229784939337	12
2	189	44.229784939337	13
2	234	50.960484427102	14
2	234	50.960484427102	15
2	290	71.784765719878	16
2	290	71.784765719878	17
2	308	74.768064907276	18
2	308	74.768064907276	19
2	332	80.872591149971	20
2	332	80.872591149971	21
2	368	91.318289009604	22
2	368	91.318289009604	23
2	397	95.512159981105	24
2	397	95.512159981105	25
2	417	99.318466816969	26
2	417	99.318466816969	27
2	439	105.273805443093	28
2	439	105.273805443093	29
2	463	108.196289792447	30
2	463	108.196289792447	31
2	495	118.700476222532	32
2	495	118.700476222532	33
2	510	124.547296969408	34
2	510	124.547296969408	35
2	525	130.450546583664	36
2	525	130.450546583664	37
2	551	140.279965656124	38
2	551	140.279965656124	39
2	565	141.835903509406	40
2	565	141.835903509406	41
2	622	158.795861846937	42
2	622	158.795861846937	43
2	638	160.058373155634	44
2	638	160.058373155634	45
2	693	186.966775438118	46
2	693	186.966775438118	47
2	716	188.809417295963	48
2	716	188.809417295963	49
2	727	191.728958070936	50
2	727	191.728958070936	51
2	751	196.163270739474	52
2	751	196.163270739474	53
2	760	197.886873019473	54
2	760	197.886873019473	55
2	784	203.635740950046	56
2	784	203.635740950046	57
2	797	206.282675080315	58
2	797	206.282675080315	59
2	806	207.505197959326	60
2	806	207.505197959326	61
2	826	212.271687240481	62
2	826	212.271687240481	63
2	850	216.333254893097	64
2	850	216.333254893097	65
2	869	219.349554775305	66
2	869	219.349554775305	67
2	884	221.098081115519	68
2	884	221.098081115519	69
2	912	227.695872794716	70
2	912	227.695872794716	71
2	923	231.610270333655	72
2	923	231.610270333655	73
2	942	235.038850122935	74
2	942	235.038850122935	75
2	960	237.716186489627	76
2	960	237.716186489627	77
3	28	7.433821932529	0
3	28	7.433821932529	1
3	28	7.433821932529	2
3	75	18.29964176684	3
3	75	18.29964176684	4
3	75	18.29964176684	5
3	102	23.142087197997	6
3	102	23.142087197997	7
3	102	23.142087197997	8
3	125	26.447784133255	9
3	125	26.447784133255	10
3	125	26.447784133255	11
3	192	44.250108745628	12
3	192	44.250108745628	13
3	192	44.250108745628	14
3	208	45.882765306248	15
3	208	45.882765306248	16
3	208	45.882765306248	17
3	223	49.080347073539	18
3	223	49.080347073539	19
3	223	49.080347073539	20
3	237	50.970347360492	21
3	237	50.970347360492	22
3	237	50.970347360492	23
3	278	69.628525043434	24
3	278	69.628525043434	25
3	278	69.628525043434	26
3	296	71.806607553772	27
3	296	71.806607553772	28
3	296	71.806607553772	29
3	358	90.212347752073	30
3	358	90.212347752073	31
3	358	90.212347752073	32
3	371	91.331766780848	33
3	371	91.331766780848	34
3	371	91.331766780848	35
3	400	95.520253494226	36
3	400	95.520253494226	37
3	400	95.520253494226	38
3	422	99.352532930649	39
3	422	99.352532930649	40
3	422	99.352532930649	41
3	444	105.296924000665	42
3	444	105.296924000665	43
3	444	105.296924000665	44
3	459	108.142624435551	45
3	459	108.142624435551	46
3	459	108.142624435551	47
3	491	118.680228646252	48
3	491	118.680228646252	49
3	491	118.680228646252	50
3	554	140.334939667507	51
3	554	140.334939667507	52
3	554	140.334939667507	53
3	570	141.856146129268	54
3	570	141.856146129268	55
3	570	141.856146129268	56
3	625	158.80848258297	57
3	625	158.80848258297	58
3	625	158.80848258297	59
3	699	187.001080562976	60
3	699	187.001080562976	61
3	699	187.001080562976	62
3	712	188.792642212951	63
3	712	188.792642212951	64
3	712	188.792642212951	65
3	741	195.161832872672	66
3	741	195.161832872672	67
3	741	195.161832872672	68
3	838	213.328551432966	69
3	838	213.328551432966	70
3	838	213.328551432966	71
3	853	216.354263835037	72
3	853	216.354263835037	73
3	853	216.354263835037	74
3	874	219.367695924559	75
3	874	219.367695924559	76
3	874	219.367695924559	77
3	887	221.109293401926	78
3	887	221.109293401926	79
3	887	221.109293401926	80
3	926	231.641413724433	81
3	926	231.641413724433	82
3	926	231.641413724433	83
3	948	235.059874908461	84
3	948	235.059874908461	85
3	948	235.059874908461	86
3	963	237.729656036384	87
3	963	237.729656036384	88
3	963	237.729656036384	89
4	31	7.443821932529	0
4	78	18.30964176684	1
4	105	23.152087197997	2
4	130	26.457784133255	3
4	226	49.090347073539	4
4	242	50.980347360492	5
4	361	90.222347752073	6
4	405	95.530253494226	7
4	447	105.306924000665	8
4	715	188.802642212951	9
4	744	195.171832872672	10
4	877	219.377695924559	11
4	929	231.651413724433	12
5	32	7.446812707829	0
5	32	7.446812707829	1
5	56	14.100197094451	2
5	56	14.100197094451	3
5	69	18.242699570165	4
5	69	18.242699570165	5
5	85	19.752990259816	6
5	85	19.752990259816	7
5	96	23.124230007447	8
5	96	23.124230007447	9
5	112	24.550883909612	10
5	112	24.550883909612	11
5	121	26.431225200114	12
5	121	26.431225200114	13
5	141	31.3831193732	14
5	141	31.3831193732	15
5	161	36.445306491525	16
5	161	36.445306491525	17
5	170	37.78786597743	18
5	170	37.78786597743	19
5	196	44.275534590381	20
5	196	44.275534590381	21
5	205	45.856741395491	22
5	205	45.856741395491	23
5	220	49.043876595754	24
5	220	49.043876595754	25
5	233	50.952658870465	26
5	233	50.952658870465	27
5	275	69.615883848142	28
5	275	69.615883848142	29
5	291	71.793999436706	30
5	291	71.793999436706	31
5	321	78.22782512217	32
5	321	78.22782512217	33
5	355	90.170940727082	34
5	355	90.170940727082	35
5	375	91.354345689825	36
5	375	91.354345689825	37
5	396	95.503297663674	38
5	396	95.503297663674	39
5	416	99.314211092598	40
5	416	99.314211092598	41
5	438	105.273239258264	42
5	438	105.273239258264	43
5	456	108.130599787371	44
5	456	108.130599787371	45
5	488	118.659699170786	46
5	488	118.659699170786	47
5	548	140.263010742597	48
5	548	140.263010742597	49
5	564	141.831169769066	50
5	564	141.831169769066	51
5	604	155.308204857621	52
5	604	155.308204857621	53
5	613	157.209205544028	54
5	613	157.209205544028	55
5	629	158.82547437183	56
5	629	158.82547437183	57
5	639	160.068104452061	58
5	639	160.068104452061	59
5	650	161.371138252364	60
5	650	161.371138252364	61
5	696	186.984270190522	62
5	696	186.984270190522	63
5	709	188.782617357864	64
5	709	188.782617357864	65
5	738	195.150777955513	66
5	738	195.150777955513	67
5	783	203.635157669893	68
5	783	203.635157669893	69
5	815	208.735920132844	70
5	815	208.735920132844	71
5	835	213.300457337809	72
5	835	213.300457337809	73
5	857	216.365301342179	74
5	857	216.365301342179	75
5	868	219.349062841579	76
5	868	219.349062841579	77
5	891	221.12162502538	78
5	891	221.12162502538	79
5	943	235.041435750622	80
5	943	235.041435750622	81
5	967	237.741704702078	82
5	967	237.741704702078	83

