version 2
run General-4-20231008-05:38:31-14492
attr configname General
attr datetime 20231008-05:38:31
attr experiment General
attr inifile omnetpp.ini
attr iterationvars ""
attr iterationvarsf ""
attr measurement ""
attr network Reliability
attr processid 14492
attr repetition 4
attr replication #4
attr resultdir results
attr runnumber 4
attr seedset 4
param Reliability.node[*].transmissionTime "uniform(1s, 2s)"
param Reliability.node[*].delayTime "uniform(0.01s, 0.2s)"
param Reliability.node[*].processingTime exponential(0.01s)
param Reliability.node[*].lossProbability 0.5

vector 0 Reliability.node[0] txVector ETV
vector 1 Reliability.node[1] txVector ETV
vector 2 Reliability.node[3] txVector ETV
vector 3 Reliability.node[2] txVector ETV
vector 4 Reliability.node[4] txVector ETV
vector 5 Reliability.node[5] rxVector ETV
0	1	0.193735669288	0
0	17	2.094357123985	1
0	19	3.997535650306	2
0	35	5.630498749823	3
0	37	6.896972533003	4
0	50	8.540886796233	5
0	52	9.615835382989	6
0	54	11.216578110041	7
0	70	12.384550293827	8
0	72	13.929752947682	9
0	74	15.454157031759	10
0	76	17.091767280515	11
0	78	18.493262723008	12
0	80	20.143067836216	13
0	89	21.539967839759	14
0	95	22.891641551316	15
0	104	23.974810646069	16
0	110	25.61236771421	17
0	116	26.794813115303	18
0	125	28.625001212735	19
0	141	30.00142068338	20
0	154	31.218850972283	21
0	163	32.833413813881	22
0	179	34.140426485486	23
0	185	36.077717965621	24
0	191	38.005126576092	25
0	193	39.972806205427	26
0	195	41.293421852322	27
0	201	43.179218945246	28
0	203	44.316144763412	29
0	205	45.428655099044	30
0	221	46.500938354679	31
0	223	47.504859251822	32
0	239	48.967188614108	33
0	241	50.162493324293	34
0	250	51.723961788383	35
0	266	52.764052909952	36
0	268	54.036524371164	37
0	270	55.986193314813	38
0	279	57.714462750744	39
0	281	59.214424204932	40
0	294	60.62405969404	41
0	303	62.033651083161	42
0	309	63.787506533007	43
0	321	65.014487552375	44
0	327	66.309120110853	45
0	340	67.731486057083	46
0	342	69.288568130148	47
0	344	71.144751898631	48
0	346	73.02894976145	49
0	352	74.665798429552	50
0	358	75.887379353785	51
0	360	77.19958438786	52
0	362	78.318029907451	53
0	364	79.693370052532	54
0	366	80.723144050606	55
0	368	82.260925720131	56
0	380	84.206754015909	57
0	389	86.031574940226	58
0	398	87.22680609828	59
0	404	88.39192421307	60
0	406	90.250645062804	61
0	408	91.589869968045	62
0	410	92.983116695342	63
0	423	94.253482177073	64
0	432	95.389837366214	65
0	434	96.938642488711	66
0	450	98.538439978298	67
0	459	100.477333952358	68
0	471	102.027609177317	69
0	473	103.090176083065	70
0	475	104.286200476495	71
0	477	105.740029715152	72
0	486	107.089760812848	73
0	488	108.222602819475	74
0	497	109.305310430388	75
0	509	110.810170282993	76
0	511	112.211869371507	77
0	524	114.009963414782	78
0	540	115.203478379092	79
0	549	116.27181300629	80
0	558	117.536728729411	81
0	564	119.370705621001	82
0	566	121.009568729588	83
0	582	122.437723710119	84
0	588	123.757148901151	85
0	590	125.31818146553	86
0	592	126.890006159117	87
0	605	128.041495408082	88
0	611	129.283641054445	89
0	613	130.637493121122	90
0	629	132.16841998851	91
0	638	133.413219262996	92
0	644	134.663361169781	93
0	646	136.195589694112	94
0	648	138.13441860458	95
0	664	139.43923431324	96
0	673	141.270561641698	97
0	685	142.942142757272	98
0	694	143.999724096303	99
0	703	145.702853974338	100
0	705	147.453787406125	101
0	707	148.582496901193	102
0	709	150.500680202536	103
0	725	151.792223958216	104
0	734	153.322557770332	105
0	736	154.64521878577	106
0	738	156.369615790585	107
0	754	158.024371736601	108
0	756	159.659262862906	109
0	758	161.039902751252	110
0	771	162.821807239588	111
0	773	164.674620786134	112
0	782	166.506572181742	113
0	798	168.041676451369	114
0	811	169.382129075621	115
0	813	170.480164921061	116
0	826	172.140023170422	117
0	828	173.32771588714	118
0	844	174.660507491009	119
0	846	176.572807213442	120
0	855	177.844600628281	121
0	861	179.705923960695	122
0	863	180.752097999362	123
0	869	181.848948421806	124
0	875	183.742974136641	125
0	877	185.565287078881	126
0	886	187.440464507007	127
0	888	188.935334225102	128
0	894	190.699326273669	129
0	903	192.003667802234	130
0	919	193.987909741849	131
0	928	195.759607848395	132
0	930	197.089369981932	133
0	932	198.580041893907	134
0	941	200.564007604644	135
0	943	202.47406827231	136
0	959	203.774130113573	137
0	968	204.996380839414	138
0	984	206.894004426814	139
0	990	208.784462260931	140
0	992	210.362132804851	141
0	994	211.590050303294	142
0	1006	212.921364535727	143
0	1022	214.110921411226	144
0	1035	215.749785885364	145
0	1037	217.522101227576	146
0	1039	219.29644071023	147
0	1041	220.361439381177	148
0	1050	222.121961775152	149
0	1052	223.372897969708	150
0	1068	224.380287066484	151
0	1084	226.295169385765	152
0	1086	228.271766393828	153
0	1092	230.271130428101	154
0	1108	231.407304681289	155
0	1114	232.842112431918	156
0	1116	234.496249301509	157
0	1118	235.555134477942	158
0	1127	236.663145504809	159
0	1143	237.901890158105	160
0	1152	238.96489721994	161
1	3	0.205631491707	0
1	3	0.205631491707	1
1	3	0.205631491707	2
1	21	4.007587375348	3
1	21	4.007587375348	4
1	21	4.007587375348	5
1	39	6.923635902136	6
1	39	6.923635902136	7
1	39	6.923635902136	8
1	56	11.239797424798	9
1	56	11.239797424798	10
1	56	11.239797424798	11
1	82	20.162847266865	12
1	82	20.162847266865	13
1	82	20.162847266865	14
1	91	21.556274266144	15
1	91	21.556274266144	16
1	91	21.556274266144	17
1	97	22.904557242276	18
1	97	22.904557242276	19
1	97	22.904557242276	20
1	106	23.986935729227	21
1	106	23.986935729227	22
1	106	23.986935729227	23
1	112	25.647424896051	24
1	112	25.647424896051	25
1	112	25.647424896051	26
1	118	26.81020496003	27
1	118	26.81020496003	28
1	118	26.81020496003	29
1	127	28.653756250593	30
1	127	28.653756250593	31
1	127	28.653756250593	32
1	143	30.027872191643	33
1	143	30.027872191643	34
1	143	30.027872191643	35
1	156	31.233371043303	36
1	156	31.233371043303	37
1	156	31.233371043303	38
1	165	32.861320327785	39
1	165	32.861320327785	40
1	165	32.861320327785	41
1	181	34.15312034574	42
1	181	34.15312034574	43
1	181	34.15312034574	44
1	187	36.089670914882	45
1	187	36.089670914882	46
1	187	36.089670914882	47
1	197	41.311304718181	48
1	197	41.311304718181	49
1	197	41.311304718181	50
1	207	45.440802378142	51
1	207	45.440802378142	52
1	207	45.440802378142	53
1	225	47.516431198723	54
1	225	47.516431198723	55
1	225	47.516431198723	56
1	243	50.172598138398	57
1	243	50.172598138398	58
1	243	50.172598138398	59
1	252	51.734122790296	60
1	252	51.734122790296	61
1	252	51.734122790296	62
1	272	55.996256755022	63
1	272	55.996256755022	64
1	272	55.996256755022	65
1	283	59.241075673062	66
1	283	59.241075673062	67
1	283	59.241075673062	68
1	296	60.64845165891	69
1	296	60.64845165891	70
1	296	60.64845165891	71
1	305	62.046925462022	72
1	305	62.046925462022	73
1	305	62.046925462022	74
1	311	63.81237748042	75
1	311	63.81237748042	76
1	311	63.81237748042	77
1	323	65.035517137122	78
1	323	65.035517137122	79
1	323	65.035517137122	80
1	329	66.340082155741	81
1	329	66.340082155741	82
1	329	66.340082155741	83
1	348	73.070141106212	84
1	348	73.070141106212	85
1	348	73.070141106212	86
1	354	74.679840515992	87
1	354	74.679840515992	88
1	354	74.679840515992	89
1	370	82.276815847887	90
1	370	82.276815847887	91
1	370	82.276815847887	92
1	382	84.22084647951	93
1	382	84.22084647951	94
1	382	84.22084647951	95
1	391	86.046368763182	96
1	391	86.046368763182	97
1	391	86.046368763182	98
1	400	87.239429438189	99
1	400	87.239429438189	100
1	400	87.239429438189	101
1	412	92.994431777083	102
1	412	92.994431777083	103
1	412	92.994431777083	104
1	425	94.271387700922	105
1	425	94.271387700922	106
1	425	94.271387700922	107
1	436	96.98127947347	108
1	436	96.98127947347	109
1	436	96.98127947347	110
1	452	98.555013284652	111
1	452	98.555013284652	112
1	452	98.555013284652	113
1	461	100.503036152185	114
1	461	100.503036152185	115
1	461	100.503036152185	116
1	479	105.752057243617	117
1	479	105.752057243617	118
1	479	105.752057243617	119
1	490	108.234305155067	120
1	490	108.234305155067	121
1	490	108.234305155067	122
1	499	109.31626095272	123
1	499	109.31626095272	124
1	499	109.31626095272	125
1	513	112.226264063886	126
1	513	112.226264063886	127
1	513	112.226264063886	128
1	526	114.020179020873	129
1	526	114.020179020873	130
1	526	114.020179020873	131
1	542	115.217868649157	132
1	542	115.217868649157	133
1	542	115.217868649157	134
1	551	116.303133128717	135
1	551	116.303133128717	136
1	551	116.303133128717	137
1	560	117.552284713451	138
1	560	117.552284713451	139
1	560	117.552284713451	140
1	568	121.026617022415	141
1	568	121.026617022415	142
1	568	121.026617022415	143
1	584	122.460816783776	144
1	584	122.460816783776	145
1	584	122.460816783776	146
1	594	126.904500048775	147
1	594	126.904500048775	148
1	594	126.904500048775	149
1	607	128.061793905698	150
1	607	128.061793905698	151
1	607	128.061793905698	152
1	615	130.647506689036	153
1	615	130.647506689036	154
1	615	130.647506689036	155
1	631	132.202583832502	156
1	631	132.202583832502	157
1	631	132.202583832502	158
1	640	133.428933450121	159
1	640	133.428933450121	160
1	640	133.428933450121	161
1	650	138.145075061242	162
1	650	138.145075061242	163
1	650	138.145075061242	164
1	666	139.451001735542	165
1	666	139.451001735542	166
1	666	139.451001735542	167
1	675	141.283964283913	168
1	675	141.283964283913	169
1	675	141.283964283913	170
1	687	142.955590423188	171
1	687	142.955590423188	172
1	687	142.955590423188	173
1	696	144.011322580211	174
1	696	144.011322580211	175
1	696	144.011322580211	176
1	711	150.511894351125	177
1	711	150.511894351125	178
1	711	150.511894351125	179
1	727	151.807122618997	180
1	727	151.807122618997	181
1	727	151.807122618997	182
1	740	156.384288469583	183
1	740	156.384288469583	184
1	740	156.384288469583	185
1	760	161.070490045151	186
1	760	161.070490045151	187
1	760	161.070490045151	188
1	775	164.687064701902	189
1	775	164.687064701902	190
1	775	164.687064701902	191
1	784	166.549092320521	192
1	784	166.549092320521	193
1	784	166.549092320521	194
1	800	168.055598311847	195
1	800	168.055598311847	196
1	800	168.055598311847	197
1	815	170.498692961365	198
1	815	170.498692961365	199
1	815	170.498692961365	200
1	830	173.339004808988	201
1	830	173.339004808988	202
1	830	173.339004808988	203
1	848	176.592947685508	204
1	848	176.592947685508	205
1	848	176.592947685508	206
1	857	177.857059035057	207
1	857	177.857059035057	208
1	857	177.857059035057	209
1	865	180.768716190175	210
1	865	180.768716190175	211
1	865	180.768716190175	212
1	871	181.863980054656	213
1	871	181.863980054656	214
1	871	181.863980054656	215
1	879	185.586305282437	216
1	879	185.586305282437	217
1	879	185.586305282437	218
1	890	188.95269728446	219
1	890	188.95269728446	220
1	890	188.95269728446	221
1	896	190.723488713298	222
1	896	190.723488713298	223
1	896	190.723488713298	224
1	905	192.03900123157	225
1	905	192.03900123157	226
1	905	192.03900123157	227
1	921	194.012784474989	228
1	921	194.012784474989	229
1	921	194.012784474989	230
1	934	198.595672675563	231
1	934	198.595672675563	232
1	934	198.595672675563	233
1	945	202.48891953248	234
1	945	202.48891953248	235
1	945	202.48891953248	236
1	961	203.795704582968	237
1	961	203.795704582968	238
1	961	203.795704582968	239
1	970	205.0175269273	240
1	970	205.0175269273	241
1	970	205.0175269273	242
1	986	206.919252630514	243
1	986	206.919252630514	244
1	986	206.919252630514	245
1	996	211.611653029788	246
1	996	211.611653029788	247
1	996	211.611653029788	248
1	1008	212.94406204756	249
1	1008	212.94406204756	250
1	1008	212.94406204756	251
1	1024	214.129727928529	252
1	1024	214.129727928529	253
1	1024	214.129727928529	254
1	1043	220.387062704558	255
1	1043	220.387062704558	256
1	1043	220.387062704558	257
1	1054	223.388741967614	258
1	1054	223.388741967614	259
1	1054	223.388741967614	260
1	1070	224.405916528617	261
1	1070	224.405916528617	262
1	1070	224.405916528617	263
1	1088	228.289875127345	264
1	1088	228.289875127345	265
1	1088	228.289875127345	266
1	1094	230.30537864667	267
1	1094	230.30537864667	268
1	1094	230.30537864667	269
1	1110	231.418108189827	270
1	1110	231.418108189827	271
1	1110	231.418108189827	272
1	1120	235.58659546896	273
1	1120	235.58659546896	274
1	1120	235.58659546896	275
1	1129	236.673903323407	276
1	1129	236.673903323407	277
1	1129	236.673903323407	278
1	1145	237.926083641778	279
1	1145	237.926083641778	280
1	1145	237.926083641778	281
1	1154	238.994736433532	282
1	1154	238.994736433532	283
1	1154	238.994736433532	284
2	7	0.227595799025	0
2	7	0.227595799025	1
2	32	4.075964359216	2
2	32	4.075964359216	3
2	43	6.934041834448	4
2	43	6.934041834448	5
2	60	11.257303256227	6
2	60	11.257303256227	7
2	101	22.94106543627	8
2	101	22.94106543627	9
2	131	28.67281193771	10
2	131	28.67281193771	11
2	147	30.038536275683	12
2	147	30.038536275683	13
2	176	32.918187812677	14
2	176	32.918187812677	15
2	211	45.471741260626	16
2	211	45.471741260626	17
2	229	47.540423458159	18
2	229	47.540423458159	19
2	247	50.182973719549	20
2	247	50.182973719549	21
2	263	51.788252074096	22
2	263	51.788252074096	23
2	276	56.016245118964	24
2	276	56.016245118964	25
2	315	63.826531520084	26
2	315	63.826531520084	27
2	375	82.291786193775	28
2	375	82.291786193775	29
2	416	93.007106873512	30
2	416	93.007106873512	31
2	429	94.283426765821	32
2	429	94.283426765821	33
2	443	97.017207124697	34
2	443	97.017207124697	35
2	465	100.51434623225	36
2	465	100.51434623225	37
2	506	109.348216444987	38
2	506	109.348216444987	39
2	517	112.237701290922	40
2	517	112.237701290922	41
2	537	114.074466670273	42
2	537	114.074466670273	43
2	572	121.039078146579	44
2	572	121.039078146579	45
2	598	126.915094630992	46
2	598	126.915094630992	47
2	626	130.718590336181	48
2	626	130.718590336181	49
2	654	138.160147512352	50
2	654	138.160147512352	51
2	679	141.294773876887	52
2	679	141.294773876887	53
2	691	142.981482502723	54
2	691	142.981482502723	55
2	700	144.031792491141	56
2	700	144.031792491141	57
2	716	150.529166495743	58
2	716	150.529166495743	59
2	744	156.399298688071	60
2	744	156.399298688071	61
2	764	161.084441408111	62
2	764	161.084441408111	63
2	779	164.700976197764	64
2	779	164.700976197764	65
2	788	166.577901212328	66
2	788	166.577901212328	67
2	804	168.066300478391	68
2	804	168.066300478391	69
2	819	170.517186929968	70
2	819	170.517186929968	71
2	835	173.367345573141	72
2	835	173.367345573141	73
2	900	190.747980773607	74
2	900	190.747980773607	75
2	909	192.049651133901	76
2	909	192.049651133901	77
2	938	198.612495451888	78
2	938	198.612495451888	79
2	956	202.582530188859	80
2	956	202.582530188859	81
2	981	205.058370661881	82
2	981	205.058370661881	83
2	1003	211.657073681167	84
2	1003	211.657073681167	85
2	1012	212.956902851087	86
2	1012	212.956902851087	87
2	1028	214.142873745375	88
2	1028	214.142873745375	89
2	1059	223.416232001113	90
2	1059	223.416232001113	91
2	1074	224.4261297089	92
2	1074	224.4261297089	93
2	1101	230.334905875846	94
2	1101	230.334905875846	95
2	1133	236.690452881348	96
2	1133	236.690452881348	97
2	1159	239.017750685953	98
2	1159	239.017750685953	99
3	8	0.228177698444	0
3	8	0.228177698444	1
3	25	4.037464625113	2
3	25	4.037464625113	3
3	67	11.298361120182	4
3	67	11.298361120182	5
3	86	20.174340985415	6
3	86	20.174340985415	7
3	122	26.824611320558	8
3	122	26.824611320558	9
3	134	28.683490093419	10
3	134	28.683490093419	11
3	160	31.243589601335	12
3	160	31.243589601335	13
3	169	32.879798273062	14
3	169	32.879798273062	15
3	218	45.516299624553	16
3	218	45.516299624553	17
3	236	47.594464479075	18
3	236	47.594464479075	19
3	256	51.75710060895	20
3	256	51.75710060895	21
3	287	59.277086742871	22
3	287	59.277086742871	23
3	300	60.680614608118	24
3	300	60.680614608118	25
3	316	63.834032095857	26
3	316	63.834032095857	27
3	333	66.384715265806	28
3	333	66.384715265806	29
3	374	82.291561508357	30
3	374	82.291561508357	31
3	386	84.231722781185	32
3	386	84.231722781185	33
3	395	86.078096113013	34
3	395	86.078096113013	35
3	440	96.994744750351	36
3	440	96.994744750351	37
3	456	98.569940691631	38
3	456	98.569940691631	39
3	466	100.516313606845	40
3	466	100.516313606845	41
3	483	105.770435943948	42
3	483	105.770435943948	43
3	494	108.255175597607	44
3	494	108.255175597607	45
3	503	109.326437844754	46
3	503	109.326437844754	47
3	530	114.04706201349	48
3	530	114.04706201349	49
3	546	115.254980594902	50
3	546	115.254980594902	51
3	555	116.334071090029	52
3	555	116.334071090029	53
3	579	121.073497803194	54
3	579	121.073497803194	55
3	619	130.673412084247	56
3	619	130.673412084247	57
3	635	132.212899179496	58
3	635	132.212899179496	59
3	655	138.16170230512	60
3	655	138.16170230512	61
3	670	139.510607633867	62
3	670	139.510607633867	63
3	680	141.299641218533	64
3	680	141.299641218533	65
3	715	150.522111388282	66
3	715	150.522111388282	67
3	731	151.833040663849	68
3	731	151.833040663849	69
3	745	156.40104365595	70
3	745	156.40104365595	71
3	789	166.581809585564	72
3	789	166.581809585564	73
3	834	173.35966145183	74
3	834	173.35966145183	75
3	852	176.603105519505	76
3	852	176.603105519505	77
3	883	185.600515440506	78
3	883	185.600515440506	79
3	916	192.10278423481	80
3	916	192.10278423481	81
3	925	194.031329378684	82
3	925	194.031329378684	83
3	949	202.503543445326	84
3	949	202.503543445326	85
3	965	203.807854092186	86
3	965	203.807854092186	87
3	974	205.028738211278	88
3	974	205.028738211278	89
3	1000	211.636870726614	90
3	1000	211.636870726614	91
3	1013	212.957170813143	92
3	1013	212.957170813143	93
3	1047	220.397250159588	94
3	1047	220.397250159588	95
3	1058	223.411805598001	96
3	1058	223.411805598001	97
3	1075	224.433862879699	98
3	1075	224.433862879699	99
3	1098	230.317570511646	100
3	1098	230.317570511646	101
3	1124	235.597077561024	102
3	1124	235.597077561024	103
3	1140	236.732742149399	104
3	1140	236.732742149399	105
3	1149	237.948827407768	106
3	1149	237.948827407768	107
3	1158	239.017616951177	108
3	1158	239.017616951177	109
4	13	0.240720247832	0
4	13	0.240720247832	1
4	13	0.240720247832	2
4	28	4.049254004915	3
4	28	4.049254004915	4
4	28	4.049254004915	5
4	46	6.964162601914	6
4	46	6.964162601914	7
4	46	6.964162601914	8
4	63	11.285336924417	9
4	63	11.285336924417	10
4	63	11.285336924417	11
4	137	28.693946845824	12
4	137	28.693946845824	13
4	137	28.693946845824	14
4	150	30.056303188398	15
4	150	30.056303188398	16
4	150	30.056303188398	17
4	172	32.89648745661	18
4	172	32.89648745661	19
4	172	32.89648745661	20
4	214	45.49494627874	21
4	214	45.49494627874	22
4	214	45.49494627874	23
4	232	47.555676537754	24
4	232	47.555676537754	25
4	232	47.555676537754	26
4	259	51.767269198737	27
4	259	51.767269198737	28
4	259	51.767269198737	29
4	290	59.295114721416	30
4	290	59.295114721416	31
4	290	59.295114721416	32
4	336	66.395624535547	33
4	336	66.395624535547	34
4	336	66.395624535547	35
4	419	93.029421850951	36
4	419	93.029421850951	37
4	419	93.029421850951	38
4	446	97.040544154044	39
4	446	97.040544154044	40
4	446	97.040544154044	41
4	520	112.250299287429	42
4	520	112.250299287429	43
4	520	112.250299287429	44
4	533	114.058657782296	45
4	533	114.058657782296	46
4	533	114.058657782296	47
4	575	121.050393099907	48
4	575	121.050393099907	49
4	575	121.050393099907	50
4	601	126.92827528116	51
4	601	126.92827528116	52
4	601	126.92827528116	53
4	622	130.684640866545	54
4	622	130.684640866545	55
4	622	130.684640866545	56
4	660	138.195631825665	57
4	660	138.195631825665	58
4	660	138.195631825665	59
4	721	150.557656685112	60
4	721	150.557656685112	61
4	721	150.557656685112	62
4	750	156.417783198401	63
4	750	156.417783198401	64
4	750	156.417783198401	65
4	767	161.094842581076	66
4	767	161.094842581076	67
4	767	161.094842581076	68
4	794	166.605728020871	69
4	794	166.605728020871	70
4	794	166.605728020871	71
4	807	168.076503133861	72
4	807	168.076503133861	73
4	807	168.076503133861	74
4	822	170.531250123064	75
4	822	170.531250123064	76
4	822	170.531250123064	77
4	838	173.372278556923	78
4	838	173.372278556923	79
4	838	173.372278556923	80
4	912	192.083972986757	81
4	912	192.083972986757	82
4	912	192.083972986757	83
4	952	202.536926366397	84
4	952	202.536926366397	85
4	952	202.536926366397	86
4	977	205.045003944531	87
4	977	205.045003944531	88
4	977	205.045003944531	89
4	1018	212.973242029218	90
4	1018	212.973242029218	91
4	1018	212.973242029218	92
4	1031	214.207574294618	93
4	1031	214.207574294618	94
4	1031	214.207574294618	95
4	1064	223.444232088386	96
4	1064	223.444232088386	97
4	1064	223.444232088386	98
4	1078	224.438066711642	99
4	1078	224.438066711642	100
4	1078	224.438066711642	101
4	1102	230.336723704905	102
4	1102	230.336723704905	103
4	1102	230.336723704905	104
4	1136	236.716052335202	105
4	1136	236.716052335202	106
4	1136	236.716052335202	107
4	1164	239.046281008144	108
4	1164	239.046281008144	109
4	1164	239.046281008144	110
5	140	28.703946845824	0
5	153	30.066303188398	1
5	175	32.90648745661	2
5	217	45.50494627874	3
5	262	51.777269198737	4
5	339	66.405624535547	5
5	422	93.039421850951	6
5	523	112.260299287429	7
5	578	121.060393099907	8
5	625	130.694640866545	9
5	663	138.205631825665	10
5	843	173.382278556923	11
5	980	205.055003944531	12
5	1067	223.454232088386	13
5	1139	236.726052335202	14

