version 2
run General-1-20231008-05:38:31-14492
attr configname General
attr datetime 20231008-05:38:31
attr experiment General
attr inifile omnetpp.ini
attr iterationvars ""
attr iterationvarsf ""
attr measurement ""
attr network Reliability
attr processid 14492
attr repetition 1
attr replication #1
attr resultdir results
attr runnumber 1
attr seedset 1
param Reliability.node[*].transmissionTime "uniform(1s, 2s)"
param Reliability.node[*].delayTime "uniform(0.01s, 0.2s)"
param Reliability.node[*].processingTime exponential(0.01s)
param Reliability.node[*].lossProbability 0.5

vector 0 Reliability.node[0] txVector ETV
vector 1 Reliability.node[1] txVector ETV
vector 2 Reliability.node[3] txVector ETV
vector 3 Reliability.node[2] txVector ETV
vector 4 Reliability.node[4] txVector ETV
vector 5 Reliability.node[5] rxVector ETV
0	1	0.089234179703	0
0	7	2.086418987836	1
0	9	4.085459503231	2
0	11	5.321548479495	3
0	13	6.718129205636	4
0	15	8.106039945853	5
0	17	9.77578598622	6
0	26	11.711325058832	7
0	28	13.589442495841	8
0	34	14.616830091809	9
0	36	16.175519919141	10
0	52	17.315906856094	11
0	58	18.400951063145	12
0	74	20.279093567399	13
0	76	22.113719240879	14
0	78	23.132007520995	15
0	91	24.882151833386	16
0	107	26.351390358177	17
0	109	27.650320469053	18
0	111	29.234709592886	19
0	120	30.800621621428	20
0	129	31.902956051869	21
0	138	33.668441159069	22
0	144	35.254996197881	23
0	157	36.394272541279	24
0	169	38.03210901993	25
0	178	39.388640736813	26
0	180	41.010336456705	27
0	186	42.125082426589	28
0	199	43.703472033959	29
0	201	44.856401856408	30
0	214	46.435035788339	31
0	223	48.364473022638	32
0	229	50.107237849735	33
0	242	51.337600653876	34
0	244	52.363811641118	35
0	260	53.39211813023	36
0	276	54.977877398139	37
0	285	56.841419250822	38
0	287	57.994757734822	39
0	289	59.931948060753	40
0	291	61.848357933924	41
0	293	63.630316396594	42
0	302	65.246645339416	43
0	304	67.213921669056	44
0	306	68.782022131724	45
0	308	69.985315372819	46
0	310	71.237641119515	47
0	312	72.98146697681	48
0	324	74.176896456979	49
0	333	75.796852168977	50
0	335	76.836535670912	51
0	341	78.650412032731	52
0	347	80.18223847903	53
0	356	81.691027217663	54
0	369	82.757362050356	55
0	385	83.852669861985	56
0	394	85.3754064868	57
0	406	86.609768573081	58
0	412	88.251334779782	59
0	414	89.855645269274	60
0	416	91.405193188579	61
0	425	93.331374615549	62
0	427	94.685951849331	63
0	429	95.764471818811	64
0	438	97.457657016932	65
0	440	98.472675996718	66
0	442	99.648872257096	67
0	458	100.98093582981	68
0	474	102.886328141789	69
0	476	104.479809548824	70
0	478	105.91348590248	71
0	494	107.720846427257	72
0	496	109.141040107819	73
0	498	110.820108945134	74
0	511	112.738710723237	75
0	517	113.948203604088	76
0	533	115.648087634357	77
0	535	117.115464939155	78
0	537	118.475281133201	79
0	539	119.715498765815	80
0	541	120.738667496132	81
0	543	122.270335602692	82
0	556	123.40053032071	83
0	558	124.743876560243	84
0	560	126.541515367223	85
0	569	128.421513654176	86
0	578	129.720313878149	87
0	580	131.453456409626	88
0	582	132.97246803844	89
0	584	134.743351952989	90
0	586	136.312209949015	91
0	595	137.777919824818	92
0	604	139.01613073994	93
0	613	140.704543987872	94
0	615	142.179696725333	95
0	624	144.026719007991	96
0	626	145.283837305732	97
0	628	146.394728608547	98
0	630	147.587691341877	99
0	632	149.087275512401	100
0	634	150.815861184034	101
0	647	152.024055623101	102
0	653	153.914572741488	103
0	666	155.114781736746	104
0	672	156.634133556975	105
0	674	157.958496019361	106
0	676	159.831418398652	107
0	678	161.676128008054	108
0	680	163.214568600874	109
0	696	165.081176872016	110
0	708	166.880792134558	111
0	721	168.513095450238	112
0	723	170.481108103762	113
0	732	171.840668407851	114
0	741	173.834581426694	115
0	743	175.721889479668	116
0	745	177.25582381303	117
0	751	178.833103259677	118
0	767	180.559241696611	119
0	769	181.835087596323	120
0	771	183.060478072265	121
0	777	184.707231986454	122
0	786	186.587085091161	123
0	788	187.614691105789	124
0	790	189.208123560647	125
0	792	191.051963992302	126
0	808	192.43298011704	127
0	810	193.897981599324	128
0	812	195.84553054569	129
0	818	197.066963281368	130
0	820	198.495582111764	131
0	836	199.604600874826	132
0	845	201.428610740348	133
0	847	203.108629886645	134
0	849	204.692589674962	135
0	851	206.266110653875	136
0	853	207.627128124589	137
0	869	209.585828028506	138
0	871	211.5772785974	139
0	884	213.356778785473	140
0	886	214.895406070052	141
0	888	215.898424031565	142
0	904	217.849617816161	143
0	920	219.75542731432	144
0	933	220.874884362451	145
0	935	222.866538366421	146
0	951	224.666199559464	147
0	960	225.97177117353	148
0	976	227.297760980555	149
0	978	228.874516917511	150
0	987	230.185961129961	151
0	989	232.134938145874	152
0	1002	233.194387221595	153
0	1004	234.421696956156	154
0	1006	235.736073577663	155
0	1015	236.910839453692	156
0	1024	238.350243890312	157
0	1026	239.407208293098	158
1	3	0.126198958082	0
1	3	0.126198958082	1
1	3	0.126198958082	2
1	19	9.804514222889	3
1	19	9.804514222889	4
1	19	9.804514222889	5
1	30	13.610543299027	6
1	30	13.610543299027	7
1	30	13.610543299027	8
1	38	16.18772765131	9
1	38	16.18772765131	10
1	38	16.18772765131	11
1	54	17.326305234886	12
1	54	17.326305234886	13
1	54	17.326305234886	14
1	60	18.411986316667	15
1	60	18.411986316667	16
1	60	18.411986316667	17
1	80	23.186980627679	18
1	80	23.186980627679	19
1	80	23.186980627679	20
1	93	24.893162998273	21
1	93	24.893162998273	22
1	93	24.893162998273	23
1	113	29.254227174138	24
1	113	29.254227174138	25
1	113	29.254227174138	26
1	122	30.815966931762	27
1	122	30.815966931762	28
1	122	30.815966931762	29
1	131	31.913420112067	30
1	131	31.913420112067	31
1	131	31.913420112067	32
1	140	33.70181312247	33
1	140	33.70181312247	34
1	140	33.70181312247	35
1	146	35.281467143484	36
1	146	35.281467143484	37
1	146	35.281467143484	38
1	159	36.405622893716	39
1	159	36.405622893716	40
1	159	36.405622893716	41
1	171	38.056084124206	42
1	171	38.056084124206	43
1	171	38.056084124206	44
1	182	41.050192149598	45
1	182	41.050192149598	46
1	182	41.050192149598	47
1	188	42.140327224177	48
1	188	42.140327224177	49
1	188	42.140327224177	50
1	203	44.866492344536	51
1	203	44.866492344536	52
1	203	44.866492344536	53
1	216	46.456776592969	54
1	216	46.456776592969	55
1	216	46.456776592969	56
1	225	48.376604411244	57
1	225	48.376604411244	58
1	225	48.376604411244	59
1	231	50.124335647877	60
1	231	50.124335647877	61
1	231	50.124335647877	62
1	246	52.376638069955	63
1	246	52.376638069955	64
1	246	52.376638069955	65
1	262	53.437049857583	66
1	262	53.437049857583	67
1	262	53.437049857583	68
1	278	55.001625865085	69
1	278	55.001625865085	70
1	278	55.001625865085	71
1	295	63.640683030584	72
1	295	63.640683030584	73
1	295	63.640683030584	74
1	314	73.000174390411	75
1	314	73.000174390411	76
1	314	73.000174390411	77
1	326	74.20455625715	78
1	326	74.20455625715	79
1	326	74.20455625715	80
1	337	76.860914627421	81
1	337	76.860914627421	82
1	337	76.860914627421	83
1	343	78.661569913717	84
1	343	78.661569913717	85
1	343	78.661569913717	86
1	349	80.194667481837	87
1	349	80.194667481837	88
1	349	80.194667481837	89
1	358	81.705648908879	90
1	358	81.705648908879	91
1	358	81.705648908879	92
1	371	82.768908293355	93
1	371	82.768908293355	94
1	371	82.768908293355	95
1	387	83.876018708288	96
1	387	83.876018708288	97
1	387	83.876018708288	98
1	396	85.394997904286	99
1	396	85.394997904286	100
1	396	85.394997904286	101
1	408	86.624711662825	102
1	408	86.624711662825	103
1	408	86.624711662825	104
1	418	91.440293394679	105
1	418	91.440293394679	106
1	418	91.440293394679	107
1	431	95.774599760448	108
1	431	95.774599760448	109
1	431	95.774599760448	110
1	444	99.660276342316	111
1	444	99.660276342316	112
1	444	99.660276342316	113
1	460	100.997095474104	114
1	460	100.997095474104	115
1	460	100.997095474104	116
1	480	105.92727284134	117
1	480	105.92727284134	118
1	480	105.92727284134	119
1	500	110.830112966173	120
1	500	110.830112966173	121
1	500	110.830112966173	122
1	513	112.754112972246	123
1	513	112.754112972246	124
1	513	112.754112972246	125
1	519	113.970160658018	126
1	519	113.970160658018	127
1	519	113.970160658018	128
1	545	122.288578621462	129
1	545	122.288578621462	130
1	545	122.288578621462	131
1	562	126.574932988167	132
1	562	126.574932988167	133
1	562	126.574932988167	134
1	571	128.439294596468	135
1	571	128.439294596468	136
1	571	128.439294596468	137
1	588	136.326405927704	138
1	588	136.326405927704	139
1	588	136.326405927704	140
1	597	137.788374171211	141
1	597	137.788374171211	142
1	597	137.788374171211	143
1	606	139.034558689674	144
1	606	139.034558689674	145
1	606	139.034558689674	146
1	617	142.207946542529	147
1	617	142.207946542529	148
1	617	142.207946542529	149
1	636	150.82871181986	150
1	636	150.82871181986	151
1	636	150.82871181986	152
1	649	152.049679903176	153
1	649	152.049679903176	154
1	649	152.049679903176	155
1	655	153.935980845874	156
1	655	153.935980845874	157
1	655	153.935980845874	158
1	668	155.140166687585	159
1	668	155.140166687585	160
1	668	155.140166687585	161
1	682	163.254487196807	162
1	682	163.254487196807	163
1	682	163.254487196807	164
1	698	165.091528701482	165
1	698	165.091528701482	166
1	698	165.091528701482	167
1	710	166.895027877429	168
1	710	166.895027877429	169
1	710	166.895027877429	170
1	725	170.499183187987	171
1	725	170.499183187987	172
1	725	170.499183187987	173
1	734	171.85856654838	174
1	734	171.85856654838	175
1	734	171.85856654838	176
1	747	177.290773176471	177
1	747	177.290773176471	178
1	747	177.290773176471	179
1	753	178.859462918519	180
1	753	178.859462918519	181
1	753	178.859462918519	182
1	773	183.095878069574	183
1	773	183.095878069574	184
1	773	183.095878069574	185
1	779	184.723501980441	186
1	779	184.723501980441	187
1	779	184.723501980441	188
1	794	191.075821269983	189
1	794	191.075821269983	190
1	794	191.075821269983	191
1	814	195.858637623988	192
1	814	195.858637623988	193
1	814	195.858637623988	194
1	822	198.515627506815	195
1	822	198.515627506815	196
1	822	198.515627506815	197
1	838	199.624449144727	198
1	838	199.624449144727	199
1	838	199.624449144727	200
1	855	207.680512290838	201
1	855	207.680512290838	202
1	855	207.680512290838	203
1	873	211.639065816238	204
1	873	211.639065816238	205
1	873	211.639065816238	206
1	890	215.932005224588	207
1	890	215.932005224588	208
1	890	215.932005224588	209
1	906	217.905624794778	210
1	906	217.905624794778	211
1	906	217.905624794778	212
1	922	219.782172978114	213
1	922	219.782172978114	214
1	922	219.782172978114	215
1	937	222.883502616478	216
1	937	222.883502616478	217
1	937	222.883502616478	218
1	953	224.68282227823	219
1	953	224.68282227823	220
1	953	224.68282227823	221
1	962	226.001395891275	222
1	962	226.001395891275	223
1	962	226.001395891275	224
1	980	228.891799845637	225
1	980	228.891799845637	226
1	980	228.891799845637	227
1	991	232.166697624818	228
1	991	232.166697624818	229
1	991	232.166697624818	230
1	1008	235.755415430741	231
1	1008	235.755415430741	232
1	1008	235.755415430741	233
1	1017	236.9225879458	234
1	1017	236.9225879458	235
1	1017	236.9225879458	236
2	23	9.821949119796	0
2	23	9.821949119796	1
2	43	16.213960864902	2
2	43	16.213960864902	3
2	64	18.453660905892	4
2	64	18.453660905892	5
2	104	24.95162464065	6
2	104	24.95162464065	7
2	135	31.939141705755	8
2	135	31.939141705755	9
2	150	35.293274621768	10
2	150	35.293274621768	11
2	164	36.42952360605	12
2	164	36.42952360605	13
2	192	42.173696869328	14
2	192	42.173696869328	15
2	235	50.134841259772	16
2	235	50.134841259772	17
2	250	52.3892745809	18
2	250	52.3892745809	19
2	273	53.491513662482	20
2	273	53.491513662482	21
2	321	73.023681946793	22
2	321	73.023681946793	23
2	330	74.21474376618	24
2	330	74.21474376618	25
2	375	82.786345759598	26
2	375	82.786345759598	27
2	391	83.897636091929	28
2	391	83.897636091929	29
2	403	85.430927292661	30
2	403	85.430927292661	31
2	422	91.48333297647	32
2	422	91.48333297647	33
2	435	95.817123377472	34
2	435	95.817123377472	35
2	455	99.723404523932	36
2	455	99.723404523932	37
2	465	101.015700904118	38
2	465	101.015700904118	39
2	484	105.945123212712	40
2	484	105.945123212712	41
2	523	113.980532171478	42
2	523	113.980532171478	43
2	549	122.304044440693	44
2	549	122.304044440693	45
2	592	136.341152860616	46
2	592	136.341152860616	47
2	601	137.818405618147	48
2	601	137.818405618147	49
2	610	139.050848777483	50
2	610	139.050848777483	51
2	621	142.225718453521	52
2	621	142.225718453521	53
2	659	153.953121714672	54
2	659	153.953121714672	55
2	686	163.268365194911	56
2	686	163.268365194911	57
2	702	165.105151011093	58
2	702	165.105151011093	59
2	729	170.543010840088	60
2	729	170.543010840088	61
2	757	178.876148915478	62
2	757	178.876148915478	63
2	798	191.088299784014	64
2	798	191.088299784014	65
2	827	198.531762056987	66
2	827	198.531762056987	67
2	842	199.635265442474	68
2	842	199.635265442474	69
2	859	207.708602161334	70
2	859	207.708602161334	71
2	895	215.954582756258	72
2	895	215.954582756258	73
2	910	217.918697512651	74
2	910	217.918697512651	75
2	926	219.795242272356	76
2	926	219.795242272356	77
2	948	222.945948270658	78
2	948	222.945948270658	79
2	966	226.014503181532	80
2	966	226.014503181532	81
2	1012	235.782362748075	82
2	1012	235.782362748075	83
3	42	16.210314423422	0
3	42	16.210314423422	1
3	71	18.479281462504	2
3	71	18.479281462504	3
3	84	23.200525904453	4
3	84	23.200525904453	5
3	97	24.906556617152	6
3	97	24.906556617152	7
3	117	29.273126231545	8
3	117	29.273126231545	9
3	126	30.832760549999	10
3	126	30.832760549999	11
3	163	36.425395840949	12
3	163	36.425395840949	13
3	175	38.099562600249	14
3	175	38.099562600249	15
3	207	44.880912646305	16
3	207	44.880912646305	17
3	220	46.467503176223	18
3	220	46.467503176223	19
3	251	52.390044930636	20
3	251	52.390044930636	21
3	266	53.451636036367	22
3	266	53.451636036367	23
3	282	55.017218715678	24
3	282	55.017218715678	25
3	299	63.650809385328	26
3	299	63.650809385328	27
3	318	73.01068751372	28
3	318	73.01068751372	29
3	353	80.2157308894	30
3	353	80.2157308894	31
3	362	81.716420510577	32
3	362	81.716420510577	33
3	376	82.789109841524	34
3	376	82.789109841524	35
3	400	85.410066427513	36
3	400	85.410066427513	37
3	448	99.6779201394	38
3	448	99.6779201394	39
3	464	101.01134636584	40
3	464	101.01134636584	41
3	485	105.954152245844	42
3	485	105.954152245844	43
3	504	110.855538342853	44
3	504	110.855538342853	45
3	530	114.032493668598	46
3	530	114.032493668598	47
3	566	126.592222679862	48
3	566	126.592222679862	49
3	575	128.465497617819	50
3	575	128.465497617819	51
3	640	150.839282385101	52
3	640	150.839282385101	53
3	687	163.274298465505	54
3	687	163.274298465505	55
3	705	165.136450159598	56
3	705	165.136450159598	57
3	714	166.912215844838	58
3	714	166.912215844838	59
3	738	171.885125411714	60
3	738	171.885125411714	61
3	764	178.910693797104	62
3	764	178.910693797104	63
3	783	184.74952681415	64
3	783	184.74952681415	65
3	801	191.109213954422	66
3	801	191.109213954422	67
3	826	198.530534923269	68
3	826	198.530534923269	69
3	866	207.741084374669	70
3	866	207.741084374669	71
3	877	211.663932460583	72
3	877	211.663932460583	73
3	894	215.949150961703	74
3	894	215.949150961703	75
3	913	217.929302328376	76
3	913	217.929302328376	77
3	941	222.917668314026	78
3	941	222.917668314026	79
3	957	224.693098942584	80
3	957	224.693098942584	81
3	967	226.018636423379	82
3	967	226.018636423379	83
3	984	228.909197958403	84
3	984	228.909197958403	85
3	995	232.195297790661	86
3	995	232.195297790661	87
3	1021	236.941126249346	88
3	1021	236.941126249346	89
4	48	16.244867034132	0
4	48	16.244867034132	1
4	48	16.244867034132	2
4	67	18.465861774339	3
4	67	18.465861774339	4
4	67	18.465861774339	5
4	87	23.213037793008	6
4	87	23.213037793008	7
4	87	23.213037793008	8
4	100	24.916752186703	9
4	100	24.916752186703	10
4	100	24.916752186703	11
4	153	35.307757215722	12
4	153	35.307757215722	13
4	153	35.307757215722	14
4	195	42.187283073401	15
4	195	42.187283073401	16
4	195	42.187283073401	17
4	210	44.90067730396	18
4	210	44.90067730396	19
4	210	44.90067730396	20
4	238	50.146168245308	21
4	238	50.146168245308	22
4	238	50.146168245308	23
4	256	52.417728138824	24
4	256	52.417728138824	25
4	256	52.417728138824	26
4	269	53.46505755977	27
4	269	53.46505755977	28
4	269	53.46505755977	29
4	365	81.728190335064	30
4	365	81.728190335064	31
4	365	81.728190335064	32
4	381	82.806108611914	33
4	381	82.806108611914	34
4	381	82.806108611914	35
4	451	99.692298752124	36
4	451	99.692298752124	37
4	451	99.692298752124	38
4	470	101.034841593845	39
4	470	101.034841593845	40
4	470	101.034841593845	41
4	490	105.973620548901	42
4	490	105.973620548901	43
4	490	105.973620548901	44
4	507	110.866396698901	45
4	507	110.866396698901	46
4	507	110.866396698901	47
4	526	114.002507349935	48
4	526	114.002507349935	49
4	526	114.002507349935	50
4	552	122.316258015769	51
4	552	122.316258015769	52
4	552	122.316258015769	53
4	643	150.858573694157	54
4	643	150.858573694157	55
4	643	150.858573694157	56
4	662	153.977045958577	57
4	662	153.977045958577	58
4	662	153.977045958577	59
4	692	163.296456119096	60
4	692	163.296456119096	61
4	692	163.296456119096	62
4	717	166.922683209835	63
4	717	166.922683209835	64
4	717	166.922683209835	65
4	760	178.891981163347	66
4	760	178.891981163347	67
4	760	178.891981163347	68
4	802	191.114594195313	69
4	802	191.114594195313	70
4	802	191.114594195313	71
4	832	198.544727330585	72
4	832	198.544727330585	73
4	832	198.544727330585	74
4	862	207.724582108651	75
4	862	207.724582108651	76
4	862	207.724582108651	77
4	880	211.683569260535	78
4	880	211.683569260535	79
4	880	211.683569260535	80
4	900	215.966660770587	81
4	900	215.966660770587	82
4	900	215.966660770587	83
4	914	217.93382034166	84
4	914	217.93382034166	85
4	914	217.93382034166	86
4	929	219.814050993261	87
4	929	219.814050993261	88
4	929	219.814050993261	89
4	944	222.93335272598	90
4	944	222.93335272598	91
4	944	222.93335272598	92
4	972	226.034400106786	93
4	972	226.034400106786	94
4	972	226.034400106786	95
4	998	232.207884206483	96
4	998	232.207884206483	97
4	998	232.207884206483	98
5	51	16.254867034132	0
5	156	35.317757215722	1
5	198	42.197283073401	2
5	272	53.47505755977	3
5	384	82.816108611914	4
5	473	101.044841593845	5
5	510	110.876396698901	6
5	763	178.901981163347	7
5	835	198.554727330585	8
5	883	211.693569260535	9
5	903	215.976660770587	10
5	932	219.824050993261	11
5	947	222.94335272598	12
5	975	226.044400106786	13

