version 2
run General-0-20231008-05:38:31-14492
attr configname General
attr datetime 20231008-05:38:31
attr experiment General
attr inifile omnetpp.ini
attr iterationvars ""
attr iterationvarsf ""
attr measurement ""
attr network Reliability
attr processid 14492
attr repetition 0
attr replication #0
attr resultdir results
attr runnumber 0
attr seedset 0
param Reliability.node[*].transmissionTime "uniform(1s, 2s)"
param Reliability.node[*].delayTime "uniform(0.01s, 0.2s)"
param Reliability.node[*].processingTime exponential(0.01s)
param Reliability.node[*].lossProbability 0.5

vector 0 Reliability.node[0] txVector ETV
vector 1 Reliability.node[1] txVector ETV
vector 2 Reliability.node[3] txVector ETV
vector 3 Reliability.node[2] txVector ETV
vector 4 Reliability.node[4] txVector ETV
vector 5 Reliability.node[5] rxVector ETV
0	1	0.114274565438	0
0	17	1.707119181827	1
0	19	2.979775476344	2
0	32	4.457440587999	3
0	34	5.477658987119	4
0	50	7.310278829959	5
0	62	8.95019984695	6
0	75	10.724433533455	7
0	81	12.110922511508	8
0	83	13.723985973354	9
0	95	15.626334551563	10
0	97	17.377020690431	11
0	99	18.984851357135	12
0	111	20.309898584689	13
0	117	22.305198150295	14
0	119	23.779895655419	15
0	121	25.40340576142	16
0	123	26.741413378929	17
0	139	28.416165701187	18
0	148	30.388110700137	19
0	150	32.127374281482	20
0	152	33.166562070445	21
0	158	34.449369029914	22
0	174	35.568096744203	23
0	190	36.662037250194	24
0	192	37.845228613661	25
0	208	39.431741546681	26
0	224	40.68049468643	27
0	226	42.379973963909	28
0	242	43.677410915569	29
0	255	45.178735298645	30
0	268	46.894809832173	31
0	270	48.464774743729	32
0	282	50.055647506687	33
0	284	51.423209378339	34
0	296	52.85907429767	35
0	298	54.573315596051	36
0	314	56.572162598913	37
0	316	58.141263343237	38
0	318	59.548446640914	39
0	324	60.617613631144	40
0	326	62.339669236291	41
0	328	64.20605156229	42
0	330	66.181573074387	43
0	332	68.037376417389	44
0	345	69.049090498902	45
0	347	70.2285807669	46
0	363	71.39956735967	47
0	379	72.449937418413	48
0	381	74.004179854489	49
0	383	75.216570356472	50
0	385	76.439013579937	51
0	391	77.657762947802	52
0	393	79.627999632696	53
0	395	81.308544326883	54
0	397	82.393839893939	55
0	399	83.450258228539	56
0	401	84.938095934533	57
0	417	86.819100493176	58
0	423	88.426145554131	59
0	429	89.882160177531	60
0	445	91.111379500555	61
0	454	92.536831037916	62
0	463	93.752338715672	63
0	476	95.709789571661	64
0	478	96.987418280059	65
0	487	98.57420262539	66
0	496	99.749111497618	67
0	498	100.893959260156	68
0	500	102.382015544764	69
0	516	103.737628279795	70
0	518	105.699564663303	71
0	520	106.991712194011	72
0	536	108.232540971209	73
0	548	109.296496237005	74
0	564	110.528197862516	75
0	577	112.146074554493	76
0	583	113.150122660055	77
0	596	114.578346486977	78
0	598	116.551265977165	79
0	607	118.512100631679	80
0	609	119.813931505969	81
0	611	121.589151288225	82
0	613	123.515364220907	83
0	615	124.840674530092	84
0	628	126.793545201264	85
0	644	128.46559300421	86
0	646	129.520967321081	87
0	648	130.822565954953	88
0	650	132.084684102872	89
0	659	133.540824666928	90
0	661	135.367695034557	91
0	674	136.877037100336	92
0	676	138.250850239844	93
0	678	139.838449876598	94
0	687	141.11127177354	95
0	696	142.826450522366	96
0	698	144.403993471368	97
0	700	146.363426815328	98
0	702	148.008997056476	99
0	718	149.044359492679	100
0	720	151.000765219639	101
0	722	152.187896112521	102
0	731	154.091880064067	103
0	740	155.892258522874	104
0	756	157.591880578855	105
0	772	159.050019403761	106
0	774	160.865543228416	107
0	776	162.024957692325	108
0	785	163.653856131788	109
0	794	165.381552468827	110
0	796	166.738259358639	111
0	805	167.754587863414	112
0	811	169.363765441422	113
0	813	170.419731271761	114
0	815	171.506263761623	115
0	827	172.743437052081	116
0	829	173.77590234818	117
0	831	175.356054067687	118
0	833	177.12714311977	119
0	835	178.50336970117	120
0	837	179.994394441909	121
0	846	181.976034122129	122
0	855	183.138988545706	123
0	861	184.451741838438	124
0	877	186.135314800852	125
0	879	187.873541381751	126
0	881	189.320685220725	127
0	887	191.289588256582	128
0	889	193.028270914761	129
0	891	194.477354341728	130
0	904	196.414638705627	131
0	906	197.664058748708	132
0	908	198.769964907161	133
0	924	200.720917515532	134
0	926	202.095213698531	135
0	935	203.844001951004	136
0	951	205.729964216548	137
0	967	206.754584173049	138
0	969	208.450661341502	139
0	978	209.82898748464	140
0	994	211.375872381339	141
0	996	212.777585923514	142
0	1002	214.025999383843	143
0	1015	215.399034247343	144
0	1017	217.300517238053	145
0	1019	218.630452891421	146
0	1021	220.519686216796	147
0	1023	222.03213787715	148
0	1035	223.542766779969	149
0	1051	225.181794164544	150
0	1057	226.20632156481	151
0	1059	227.709031109307	152
0	1061	228.862658650922	153
0	1063	230.288166286964	154
0	1079	232.194338127812	155
0	1081	233.583205560995	156
0	1097	234.81028953202	157
0	1099	236.458887841626	158
0	1115	237.487987849935	159
0	1124	239.027106081442	160
1	3	0.142870607559	0
1	3	0.142870607559	1
1	3	0.142870607559	2
1	21	3.006497588347	3
1	21	3.006497588347	4
1	21	3.006497588347	5
1	36	5.502716829705	6
1	36	5.502716829705	7
1	36	5.502716829705	8
1	52	7.321826126764	9
1	52	7.321826126764	10
1	52	7.321826126764	11
1	64	8.966290671182	12
1	64	8.966290671182	13
1	64	8.966290671182	14
1	77	10.757722667197	15
1	77	10.757722667197	16
1	77	10.757722667197	17
1	85	13.735031585612	18
1	85	13.735031585612	19
1	85	13.735031585612	20
1	101	18.995243188699	21
1	101	18.995243188699	22
1	101	18.995243188699	23
1	113	20.328617743225	24
1	113	20.328617743225	25
1	113	20.328617743225	26
1	125	26.755228937363	27
1	125	26.755228937363	28
1	125	26.755228937363	29
1	141	28.447218914195	30
1	141	28.447218914195	31
1	141	28.447218914195	32
1	154	33.177842638098	33
1	154	33.177842638098	34
1	154	33.177842638098	35
1	160	34.463196039403	36
1	160	34.463196039403	37
1	160	34.463196039403	38
1	176	35.586675700614	39
1	176	35.586675700614	40
1	176	35.586675700614	41
1	194	37.855431738249	42
1	194	37.855431738249	43
1	194	37.855431738249	44
1	210	39.450325476359	45
1	210	39.450325476359	46
1	210	39.450325476359	47
1	228	42.406783185954	48
1	228	42.406783185954	49
1	228	42.406783185954	50
1	244	43.718665599146	51
1	244	43.718665599146	52
1	244	43.718665599146	53
1	257	45.192131945971	54
1	257	45.192131945971	55
1	257	45.192131945971	56
1	272	48.483315541085	57
1	272	48.483315541085	58
1	272	48.483315541085	59
1	286	51.455458524911	60
1	286	51.455458524911	61
1	286	51.455458524911	62
1	300	54.584934296918	63
1	300	54.584934296918	64
1	300	54.584934296918	65
1	320	59.570401026577	66
1	320	59.570401026577	67
1	320	59.570401026577	68
1	334	68.051838945594	69
1	334	68.051838945594	70
1	334	68.051838945594	71
1	349	70.24480674034	72
1	349	70.24480674034	73
1	349	70.24480674034	74
1	365	71.421577068735	75
1	365	71.421577068735	76
1	365	71.421577068735	77
1	387	76.457443367691	78
1	387	76.457443367691	79
1	387	76.457443367691	80
1	403	84.985562880671	81
1	403	84.985562880671	82
1	403	84.985562880671	83
1	419	86.841642525877	84
1	419	86.841642525877	85
1	419	86.841642525877	86
1	425	88.459834735839	87
1	425	88.459834735839	88
1	425	88.459834735839	89
1	431	89.913495810406	90
1	431	89.913495810406	91
1	431	89.913495810406	92
1	447	91.143037137364	93
1	447	91.143037137364	94
1	447	91.143037137364	95
1	456	92.57627584069	96
1	456	92.57627584069	97
1	456	92.57627584069	98
1	465	93.768720601728	99
1	465	93.768720601728	100
1	465	93.768720601728	101
1	480	97.017358672072	102
1	480	97.017358672072	103
1	480	97.017358672072	104
1	489	98.596392618842	105
1	489	98.596392618842	106
1	489	98.596392618842	107
1	502	102.420221904248	108
1	502	102.420221904248	109
1	502	102.420221904248	110
1	522	107.002769065752	111
1	522	107.002769065752	112
1	522	107.002769065752	113
1	538	108.249189048705	114
1	538	108.249189048705	115
1	538	108.249189048705	116
1	550	109.33631824376	117
1	550	109.33631824376	118
1	550	109.33631824376	119
1	566	110.538331114964	120
1	566	110.538331114964	121
1	566	110.538331114964	122
1	579	112.159214533474	123
1	579	112.159214533474	124
1	579	112.159214533474	125
1	585	113.163658625808	126
1	585	113.163658625808	127
1	585	113.163658625808	128
1	600	116.584969852971	129
1	600	116.584969852971	130
1	600	116.584969852971	131
1	617	124.850814996004	132
1	617	124.850814996004	133
1	617	124.850814996004	134
1	630	126.806360441489	135
1	630	126.806360441489	136
1	630	126.806360441489	137
1	652	132.106181516749	138
1	652	132.106181516749	139
1	652	132.106181516749	140
1	663	135.378598406998	141
1	663	135.378598406998	142
1	663	135.378598406998	143
1	680	139.853083776873	144
1	680	139.853083776873	145
1	680	139.853083776873	146
1	689	141.128021283277	147
1	689	141.128021283277	148
1	689	141.128021283277	149
1	704	148.024625308494	150
1	704	148.024625308494	151
1	704	148.024625308494	152
1	724	152.205744482717	153
1	724	152.205744482717	154
1	724	152.205744482717	155
1	733	154.122846426802	156
1	733	154.122846426802	157
1	733	154.122846426802	158
1	742	155.906229332374	159
1	742	155.906229332374	160
1	742	155.906229332374	161
1	758	157.610820592882	162
1	758	157.610820592882	163
1	758	157.610820592882	164
1	778	162.040039886866	165
1	778	162.040039886866	166
1	778	162.040039886866	167
1	787	163.677413316927	168
1	787	163.677413316927	169
1	787	163.677413316927	170
1	798	166.75030788131	171
1	798	166.75030788131	172
1	798	166.75030788131	173
1	807	167.76562457178	174
1	807	167.76562457178	175
1	807	167.76562457178	176
1	817	171.534559183182	177
1	817	171.534559183182	178
1	817	171.534559183182	179
1	839	180.007200201171	180
1	839	180.007200201171	181
1	839	180.007200201171	182
1	848	181.996216297917	183
1	848	181.996216297917	184
1	848	181.996216297917	185
1	857	183.16517515637	186
1	857	183.16517515637	187
1	857	183.16517515637	188
1	863	184.466533965383	189
1	863	184.466533965383	190
1	863	184.466533965383	191
1	883	189.33519760871	192
1	883	189.33519760871	193
1	883	189.33519760871	194
1	893	194.490328077007	195
1	893	194.490328077007	196
1	893	194.490328077007	197
1	910	198.782623072651	198
1	910	198.782623072651	199
1	910	198.782623072651	200
1	928	202.107929256448	201
1	928	202.107929256448	202
1	928	202.107929256448	203
1	937	203.858338599558	204
1	937	203.858338599558	205
1	937	203.858338599558	206
1	953	205.741575642336	207
1	953	205.741575642336	208
1	953	205.741575642336	209
1	971	208.461715302801	210
1	971	208.461715302801	211
1	971	208.461715302801	212
1	980	209.842200887669	213
1	980	209.842200887669	214
1	980	209.842200887669	215
1	998	212.794635416728	216
1	998	212.794635416728	217
1	998	212.794635416728	218
1	1004	214.043443166457	219
1	1004	214.043443166457	220
1	1004	214.043443166457	221
1	1025	222.047028961256	222
1	1025	222.047028961256	223
1	1025	222.047028961256	224
1	1037	223.56071550833	225
1	1037	223.56071550833	226
1	1037	223.56071550833	227
1	1053	225.199960091432	228
1	1053	225.199960091432	229
1	1053	225.199960091432	230
1	1065	230.29825176715	231
1	1065	230.29825176715	232
1	1065	230.29825176715	233
1	1083	233.599272685087	234
1	1083	233.599272685087	235
1	1083	233.599272685087	236
1	1101	236.494086728564	237
1	1101	236.494086728564	238
1	1101	236.494086728564	239
1	1117	237.519814988828	240
1	1117	237.519814988828	241
1	1117	237.519814988828	242
1	1126	239.057646606281	243
1	1126	239.057646606281	244
1	1126	239.057646606281	245
2	7	0.158381092426	0
2	7	0.158381092426	1
2	25	3.021486308437	2
2	25	3.021486308437	3
2	40	5.519133921432	4
2	40	5.519133921432	5
2	56	7.33294558837	6
2	56	7.33294558837	7
2	90	13.756137560069	8
2	90	13.756137560069	9
2	105	19.006319539781	10
2	105	19.006319539781	11
2	130	26.76982907694	12
2	130	26.76982907694	13
2	164	34.473859013418	14
2	164	34.473859013418	15
2	187	35.65100171938	16
2	187	35.65100171938	17
2	205	37.911767456268	18
2	205	37.911767456268	19
2	214	39.470512063659	20
2	214	39.470512063659	21
2	232	42.438078179915	22
2	232	42.438078179915	23
2	261	45.215961738036	24
2	261	45.215961738036	25
2	276	48.497186842006	26
2	276	48.497186842006	27
2	290	51.471399259894	28
2	290	51.471399259894	29
2	311	54.635981800932	30
2	311	54.635981800932	31
2	357	70.281128928965	32
2	357	70.281128928965	33
2	376	71.500358118478	34
2	376	71.500358118478	35
2	407	84.995812764204	36
2	407	84.995812764204	37
2	436	89.932370829691	38
2	436	89.932370829691	39
2	484	97.034643910499	40
2	484	97.034643910499	41
2	493	98.624745252871	42
2	493	98.624745252871	43
2	506	102.431193581032	44
2	506	102.431193581032	45
2	526	107.039294650907	46
2	526	107.039294650907	47
2	542	108.268515167258	48
2	542	108.268515167258	49
2	554	109.352976668626	50
2	554	109.352976668626	51
2	570	110.549934455909	52
2	570	110.549934455909	53
2	589	113.174944428181	54
2	589	113.174944428181	55
2	634	126.824510624798	56
2	634	126.824510624798	57
2	684	139.869242969711	58
2	684	139.869242969711	59
2	693	141.159452280281	60
2	693	141.159452280281	61
2	708	148.036178164349	62
2	708	148.036178164349	63
2	728	152.237118699621	64
2	728	152.237118699621	65
2	737	154.138403015934	66
2	737	154.138403015934	67
2	750	155.929374553355	68
2	750	155.929374553355	69
2	769	157.675891580551	70
2	769	157.675891580551	71
2	782	162.055556922992	72
2	782	162.055556922992	73
2	791	163.688689052665	74
2	791	163.688689052665	75
2	802	166.786799763932	76
2	802	166.786799763932	77
2	822	171.550159266915	78
2	822	171.550159266915	79
2	843	180.017667550188	80
2	843	180.017667550188	81
2	852	182.051694536436	82
2	852	182.051694536436	83
2	867	184.483817741113	84
2	867	184.483817741113	85
2	897	194.512272976442	86
2	897	194.512272976442	87
2	921	198.821877123464	88
2	921	198.821877123464	89
2	932	202.123894755617	90
2	932	202.123894755617	91
2	945	203.896912853036	92
2	945	203.896912853036	93
2	957	205.763882830846	94
2	957	205.763882830846	95
2	984	209.854628342043	96
2	984	209.854628342043	97
2	1030	222.069425942062	98
2	1030	222.069425942062	99
2	1041	223.572320349404	100
2	1041	223.572320349404	101
2	1069	230.309481392819	102
2	1069	230.309481392819	103
2	1090	233.64217917339	104
2	1090	233.64217917339	105
2	1106	236.511425428234	106
2	1106	236.511425428234	107
2	1131	239.075458294181	108
2	1131	239.075458294181	109
3	8	0.160742618959	0
3	8	0.160742618959	1
3	43	5.533125751864	2
3	43	5.533125751864	3
3	59	7.346039773565	4
3	59	7.346039773565	5
3	68	8.977743451455	6
3	68	8.977743451455	7
3	89	13.756020710288	8
3	89	13.756020710288	9
3	108	19.049788157161	10
3	108	19.049788157161	11
3	129	26.767417743328	12
3	129	26.767417743328	13
3	145	28.49483818704	14
3	145	28.49483818704	15
3	171	34.522219853804	16
3	171	34.522219853804	17
3	180	35.599929104769	18
3	180	35.599929104769	19
3	198	37.870049047209	20
3	198	37.870049047209	21
3	217	39.482962812118	22
3	217	39.482962812118	23
3	239	42.49547927287	24
3	239	42.49547927287	25
3	248	43.733688707129	26
3	248	43.733688707129	27
3	279	48.528040895878	28
3	279	48.528040895878	29
3	291	51.473159293506	30
3	291	51.473159293506	31
3	304	54.595317126047	32
3	304	54.595317126047	33
3	338	68.075701859114	34
3	338	68.075701859114	35
3	353	70.259043311354	36
3	353	70.259043311354	37
3	369	71.458790551294	38
3	369	71.458790551294	39
3	408	84.997542558024	40
3	408	84.997542558024	41
3	435	89.928332194281	42
3	435	89.928332194281	43
3	451	91.18356898406	44
3	451	91.18356898406	45
3	460	92.607503307229	46
3	460	92.607503307229	47
3	469	93.781045851912	48
3	469	93.781045851912	49
3	509	102.443965334392	50
3	509	102.443965334392	51
3	533	107.118754257908	52
3	533	107.118754257908	53
3	543	108.274679165497	54
3	543	108.274679165497	55
3	555	109.358890613716	56
3	555	109.358890613716	57
3	604	116.599421346365	58
3	604	116.599421346365	59
3	621	124.875537037584	60
3	621	124.875537037584	61
3	641	126.850290751463	62
3	641	126.850290751463	63
3	656	132.135329939325	64
3	656	132.135329939325	65
3	667	135.400538540704	66
3	667	135.400538540704	67
3	709	148.036367260098	68
3	709	148.036367260098	69
3	746	155.916503753378	70
3	746	155.916503753378	71
3	762	157.628980778522	72
3	762	157.628980778522	73
3	821	171.54471647442	74
3	821	171.54471647442	75
3	868	184.487495890993	76
3	868	184.487495890993	77
3	914	198.797488264049	78
3	914	198.797488264049	79
3	941	203.875317975046	80
3	941	203.875317975046	81
3	964	205.788082227895	82
3	964	205.788082227895	83
3	975	208.494290070709	84
3	975	208.494290070709	85
3	985	209.855194417698	86
3	985	209.855194417698	87
3	1008	214.063268449884	88
3	1008	214.063268449884	89
3	1029	222.066767747171	90
3	1029	222.066767747171	91
3	1048	223.605017732208	92
3	1048	223.605017732208	93
3	1070	230.310605825815	94
3	1070	230.310605825815	95
3	1087	233.61815797221	96
3	1087	233.61815797221	97
3	1105	236.509921330287	98
3	1105	236.509921330287	99
3	1121	237.539459986446	100
3	1121	237.539459986446	101
3	1130	239.07241658379	102
3	1130	239.07241658379	103
4	13	0.173232374063	0
4	13	0.173232374063	1
4	13	0.173232374063	2
4	28	3.032223161992	3
4	28	3.032223161992	4
4	28	3.032223161992	5
4	44	5.535323216028	6
4	44	5.535323216028	7
4	44	5.535323216028	8
4	71	8.989364816349	9
4	71	8.989364816349	10
4	71	8.989364816349	11
4	133	26.777554389112	12
4	133	26.777554389112	13
4	133	26.777554389112	14
4	167	34.492187448579	15
4	167	34.492187448579	16
4	167	34.492187448579	17
4	183	35.628402381279	18
4	183	35.628402381279	19
4	183	35.628402381279	20
4	201	37.88847987753	21
4	201	37.88847987753	22
4	201	37.88847987753	23
4	220	39.511034880228	24
4	220	39.511034880228	25
4	220	39.511034880228	26
4	235	42.451835568339	27
4	235	42.451835568339	28
4	235	42.451835568339	29
4	251	43.750129754212	30
4	251	43.750129754212	31
4	251	43.750129754212	32
4	264	45.22741747782	33
4	264	45.22741747782	34
4	264	45.22741747782	35
4	307	54.607142512066	36
4	307	54.607142512066	37
4	307	54.607142512066	38
4	341	68.092426464282	39
4	341	68.092426464282	40
4	341	68.092426464282	41
4	356	70.278122951627	42
4	356	70.278122951627	43
4	356	70.278122951627	44
4	372	71.47646134784	45
4	372	71.47646134784	46
4	372	71.47646134784	47
4	413	85.014054865343	48
4	413	85.014054865343	49
4	413	85.014054865343	50
4	441	89.945665871013	51
4	441	89.945665871013	52
4	441	89.945665871013	53
4	472	93.795732616672	54
4	472	93.795732616672	55
4	472	93.795732616672	56
4	512	102.461999252019	57
4	512	102.461999252019	58
4	512	102.461999252019	59
4	529	107.067194546952	60
4	529	107.067194546952	61
4	529	107.067194546952	62
4	560	109.383714283257	63
4	560	109.383714283257	64
4	560	109.383714283257	65
4	573	110.601953050171	66
4	573	110.601953050171	67
4	573	110.601953050171	68
4	592	113.185974111818	69
4	592	113.185974111818	70
4	592	113.185974111818	71
4	624	124.886365660313	72
4	624	124.886365660313	73
4	624	124.886365660313	74
4	637	126.839275410624	75
4	637	126.839275410624	76
4	637	126.839275410624	77
4	670	135.425562668641	78
4	670	135.425562668641	79
4	670	135.425562668641	80
4	714	148.049429873054	81
4	714	148.049429873054	82
4	714	148.049429873054	83
4	749	155.92825370386	84
4	749	155.92825370386	85
4	749	155.92825370386	86
4	765	157.648700887433	87
4	765	157.648700887433	88
4	765	157.648700887433	89
4	873	184.503079158886	90
4	873	184.503079158886	91
4	873	184.503079158886	92
4	900	194.525790650296	93
4	900	194.525790650296	94
4	900	194.525790650296	95
4	917	198.808696578012	96
4	917	198.808696578012	97
4	917	198.808696578012	98
4	944	203.893270197059	99
4	944	203.893270197059	100
4	944	203.893270197059	101
4	960	205.77461789462	102
4	960	205.77461789462	103
4	960	205.77461789462	104
4	990	209.872659709762	105
4	990	209.872659709762	106
4	990	209.872659709762	107
4	1011	214.107417698908	108
4	1011	214.107417698908	109
4	1011	214.107417698908	110
4	1044	223.582627367134	111
4	1044	223.582627367134	112
4	1044	223.582627367134	113
4	1075	230.322903139735	114
4	1075	230.322903139735	115
4	1075	230.322903139735	116
4	1093	233.657989259945	117
4	1093	233.657989259945	118
4	1093	233.657989259945	119
4	1111	236.536354862639	120
4	1111	236.536354862639	121
4	1111	236.536354862639	122
4	1136	239.103171827374	123
4	1136	239.103171827374	124
4	1136	239.103171827374	125
5	16	0.183232374063	0
5	31	3.042223161992	1
5	49	5.545323216028	2
5	74	8.999364816349	3
5	170	34.502187448579	4
5	186	35.638402381279	5
5	223	39.521034880228	6
5	238	42.461835568339	7
5	310	54.617142512066	8
5	375	71.48646134784	9
5	416	85.024054865343	10
5	532	107.077194546952	11
5	595	113.195974111818	12
5	627	124.896365660313	13
5	876	184.513079158886	14
5	948	203.903270197059	15
5	993	209.882659709762	16
5	1078	230.332903139735	17
5	1096	233.667989259945	18

