version 2
run General-4-20231008-01:00:11-9078
attr configname General
attr datetime 20231008-01:00:11
attr experiment General
attr inifile omnetpp.ini
attr iterationvars ""
attr iterationvarsf ""
attr measurement ""
attr network Reliability
attr processid 9078
attr repetition 4
attr replication #4
attr resultdir results
attr runnumber 4
attr seedset 4
param Reliability.node[*].transmissionTime "uniform(1s, 2s)"
param Reliability.node[*].delayTime "uniform(0.01s, 0.2s)"
param Reliability.node[*].processingTime exponential(0.01s)
param Reliability.node[0].lossProbability 0
param Reliability.node[1].lossProbability 0.1
param Reliability.node[2].lossProbability 0.2
param Reliability.node[3].lossProbability 0.3
param Reliability.node[4].lossProbability 0.4
param Reliability.node[5].lossProbability 0.5

vector 0 Reliability.node[0] txVector ETV
vector 1 Reliability.node[1] txVector ETV
vector 2 Reliability.node[3] txVector ETV
vector 3 Reliability.node[4] txVector ETV
vector 4 Reliability.node[2] txVector ETV
vector 5 Reliability.node[5] rxVector ETV
0	1	0.193735669288	0
0	9	2.094357123985	1
0	13	4.070631578718	2
0	17	5.973810105039	3
0	23	7.171495176772	4
0	31	8.768829119545	5
0	37	9.787853860682	6
0	39	11.229202394061	7
0	47	12.294911932819	8
0	51	14.232483517765	9
0	59	15.268241705992	10
0	65	16.9180468192	11
0	71	18.09702072727	12
0	73	19.350700380201	13
0	79	20.905441244752	14
0	87	22.542998312893	15
0	95	23.858671800852	16
0	103	25.430810571801	17
0	111	26.475458400244	18
0	115	27.540526208155	19
0	121	29.132399853937	20
0	129	30.653074255366	21
0	137	32.140811890982	22
0	141	33.622271834327	23
0	149	34.972557048466	24
0	153	36.34366323139	25
0	155	37.762697271923	26
0	163	39.665119130783	27
0	167	41.412613944303	28
0	171	42.471494035482	29
0	179	43.78028860005	30
0	185	45.72287445554	31
0	187	47.704084380217	32
0	189	49.677362377675	33
0	197	50.717453499244	34
0	205	52.614145354287	35
0	213	53.620469294408	36
0	221	55.431306410035	37
0	227	56.840897799156	38
0	233	57.975650404965	39
0	239	59.805068353343	40
0	245	61.249609014404	41
0	251	62.572183994495	42
0	255	64.379732943291	43
0	263	66.069518237293	44
0	269	67.221403839916	45
0	275	68.533608873991	46
0	281	70.071390543516	47
0	289	71.683202896184	48
0	293	72.767103278693	49
0	301	74.504555255557	50
0	303	75.548477763692	51
0	309	76.833722357322	52
0	317	78.589371646438	53
0	323	80.100758932447	54
0	329	81.157964852787	55
0	337	83.083149982066	56
0	343	84.519320986847	57
0	349	85.6311953032	58
0	355	87.467069840672	59
0	363	88.663094234102	60
0	367	90.299228248334	61
0	375	92.045055812372	62
0	383	93.629331462233	63
0	391	95.427425505508	64
0	395	96.853443259521	65
0	401	98.449946536365	66
0	407	100.070515786679	67
0	411	101.074388424316	68
0	417	102.438365745507	69
0	423	104.29824702247	70
0	431	105.937110131057	71
0	437	107.902538728584	72
0	441	109.864141913047	73
0	443	111.425174477426	74
0	451	112.996999171013	75
0	459	114.269443687433	76
0	463	115.669715386266	77
0	471	117.209163579308	78
0	477	118.236263981704	79
0	483	119.893851603764	80
0	491	121.426080128095	81
0	499	122.823927969822	82
0	507	123.98593220316	83
0	513	125.739321296719	84
0	517	126.79690263575	85
0	525	128.347050063229	86
0	529	129.86751174057	87
0	537	130.941494184696	88
0	545	132.541026404277	89
0	551	134.04358092431	90
0	559	135.767977929125	91
0	567	137.472243058877	92
0	573	139.254147547213	93
0	575	140.927344022933	94
0	581	142.216198948361	95
0	589	143.718864432918	96
0	593	145.615730467867	97
0	601	147.417444557566	98
0	603	148.982301662825	99
0	609	150.101446559103	100
0	613	151.761304808464	101
0	619	153.595422149785	102
0	623	154.783114866503	103
0	629	155.840726668863	104
0	635	157.648464622125	105
0	639	159.64295628286	106
0	645	160.812229846986	107
0	647	162.290580377365	108
0	649	163.373403905575	109
0	655	165.337153347359	110
0	663	167.084675226278	111
0	667	168.118102086393	112
0	671	169.88209413496	113
0	679	171.229301546618	114
0	687	172.914230393164	115
0	695	174.63040576122	116
0	703	175.930687030696	117
0	711	177.903681211325	118
0	719	179.273905341199	119
0	727	180.49615606704	120
0	731	182.168112478836	121
0	737	184.098031761975	122
0	745	186.029642862187	123
0	753	187.36095709462	124
0	757	188.401139397093	125
0	765	190.381999032258	126
0	771	191.468016167323	127
0	777	192.849421153462	128
0	785	194.623760636116	129
0	789	196.552274983528	130
0	795	198.327199620579	131
0	797	199.821466312429	132
0	805	201.54854810998	133
0	809	203.366295833524	134
0	811	204.380191838985	135
0	813	206.368378259392	136
0	819	207.584719633601	137
0	827	208.922470573486	138
0	835	210.522081822307	139
0	843	211.884631015976	140
0	845	212.998168209485	141
0	853	214.219097069382	142
0	861	216.033341461943	143
0	863	217.753736241871	144
0	865	218.871203903026	145
0	873	220.017515509074	146
0	877	221.464002829661	147
0	879	222.504200676374	148
0	885	223.581759844592	149
0	891	225.191023395315	150
0	899	226.865851420595	151
0	907	228.347611848649	152
0	911	229.645624948817	153
0	913	230.86874131664	154
0	917	232.666589751526	155
0	923	233.737327737653	156
0	929	235.43696211899	157
0	933	236.514393264347	158
0	939	237.571585984121	159
0	945	239.113437440165	160
1	3	0.205631491707	0
1	11	2.104419621445	1
1	15	4.090654507615	2
1	19	6.003687354804	3
1	25	7.181585443902	4
1	33	8.779235051857	5
1	41	11.241136557652	6
1	49	12.312287023075	7
1	53	14.245081109085	8
1	61	15.283298428636	9
1	67	16.932756072027	10
1	75	19.370506828901	11
1	81	20.91756632791	12
1	89	22.573895015731	13
1	97	23.887343766089	14
1	105	25.441810964094	15
1	113	26.493225312959	16
1	117	27.58055471564	17
1	123	29.146067289588	18
1	131	30.679689171513	19
1	139	32.177040980639	20
1	143	33.634367024138	21
1	151	34.984029594801	22
1	157	37.811627451032	23
1	165	39.681816779531	24
1	169	41.432076852459	25
1	173	42.495486294918	26
1	181	43.796552642397	27
1	191	49.687523379588	28
1	199	50.734463296658	29
1	207	52.625191492907	30
1	215	53.63772128185	31
1	223	55.455698374905	32
1	229	56.864370256366	33
1	235	58.00110247637	34
1	241	59.819630719855	35
1	247	61.286987541959	36
1	253	62.583093264236	37
1	257	64.395740823934	38
1	265	66.082023139713	39
1	271	67.232664524664	40
1	277	68.572764839683	41
1	283	70.108477923185	42
1	291	71.702757423038	43
1	295	72.781159775642	44
1	305	75.561631230341	45
1	311	76.846619177581	46
1	319	78.628999628714	47
1	325	80.118717491766	48
1	331	81.175116861088	49
1	339	83.106510211223	50
1	345	84.53731218179	51
1	351	85.648725811956	52
1	357	87.483118076696	53
1	365	88.67451957499	54
1	369	90.339524984974	55
1	377	92.055232704406	56
1	385	93.643726154612	57
1	393	95.43957620487	58
1	397	96.880326252138	59
1	403	98.460661168075	60
1	409	100.107627732424	61
1	413	101.093000857032	62
1	419	102.466322028437	63
1	425	104.313835895163	64
1	433	105.955468305325	65
1	439	107.917307459719	66
1	445	111.436817202664	67
1	453	113.017368183392	68
1	461	114.287912131822	69
1	465	115.68415068403	70
1	473	117.227436849722	71
1	479	118.249142694698	72
1	485	119.931792409707	73
1	493	121.44173217557	74
1	501	122.852606112351	75
1	509	124.004029918057	76
1	515	125.752768962635	77
1	519	126.809827739862	78
1	527	128.370950413989	79
1	531	129.884045003619	80
1	539	130.951936634887	81
1	547	132.566944449129	82
1	553	134.064215961402	83
1	561	135.803632156331	84
1	569	137.502830352776	85
1	577	140.938196487063	86
1	583	142.234875465962	87
1	591	143.747673324725	88
1	595	145.639648903174	89
1	605	148.992504318295	90
1	611	150.119974599407	91
1	615	151.779778177822	92
1	621	153.609468678224	93
1	625	154.803771509345	94
1	631	155.854120082987	95
1	637	157.675081342712	96
1	641	159.654966129275	97
1	651	163.401434086576	98
1	657	165.348301247312	99
1	665	167.095783664464	100
1	669	168.135465145751	101
1	673	169.90462930556	102
1	681	171.255375024917	103
1	689	172.925144201333	104
1	697	174.64440698727	105
1	705	175.946099361679	106
1	713	177.920260900839	107
1	721	179.295479810594	108
1	729	180.522523568174	109
1	733	182.184378212089	110
1	739	184.148695931321	111
1	747	186.051245588681	112
1	755	187.378431610892	113
1	759	188.435084017577	114
1	767	190.410350616871	115
1	773	191.532716716566	116
1	779	192.860093226744	117
1	787	194.636649947232	118
1	791	196.568229384564	119
1	799	199.838226570724	120
1	807	201.558954345455	121
1	815	206.383280299234	122
1	821	207.604386276728	123
1	829	208.944951433624	124
1	837	210.536249067983	125
1	847	213.054911072333	126
1	855	214.272457738373	127
1	867	218.901043116618	128
1	875	220.03142190872	129
1	881	222.552366067072	130
1	887	223.593052512837	131
1	893	225.202726210687	132
1	901	226.891323906944	133
1	909	228.37128884282	134
1	915	230.882173008293	135
1	919	232.67749231874	136
1	925	233.749311394725	137
1	931	235.449151992396	138
1	935	236.524538993322	139
1	941	237.582986335641	140
1	947	239.125016989174	141
2	5	0.228177698444	0
2	27	7.194684363302	1
2	35	8.809355819323	2
2	77	19.407015022895	3
2	91	22.607398870158	4
2	99	23.909349585884	5
2	119	27.605154470887	6
2	125	29.163296215703	7
2	133	30.700200003827	8
2	145	33.648232706678	9
2	183	43.806657456502	10
2	201	50.747644317179	11
2	217	53.660467098829	12
2	243	59.840660304602	13
2	249	61.306069723182	14
2	259	64.427299546516	15
2	267	66.113568445302	16
2	273	67.245754226324	17
2	279	68.583687204988	18
2	285	70.124780256811	19
2	313	76.85929427401	20
2	321	78.64203560556	21
2	333	81.187107147155	22
2	341	83.127295197564	23
2	359	87.511363633056	24
2	399	96.908781440917	25
2	421	102.483354011915	26
2	435	105.976771419739	27
2	503	122.867866876823	28
2	511	124.017416560417	29
2	541	130.981121666802	30
2	549	132.58293909311	31
2	555	134.08699122647	32
2	571	137.534119800197	33
2	597	145.651243613647	34
2	617	151.790421138727	35
2	633	155.888458385133	36
2	683	171.266024927248	37
2	691	172.946070631711	38
2	699	174.656846100536	39
2	723	179.307629319812	40
2	741	184.163130998034	41
2	769	190.420762567605	42
2	781	192.881328858072	43
2	801	199.872863775734	44
2	831	208.959548013092	45
2	839	210.547392083067	46
2	895	225.231240840655	47
2	903	226.912938262617	48
2	921	232.696092953949	49
2	927	233.759972766704	50
2	937	236.554416529	51
2	949	239.158844393128	52
3	7	0.247279696778	0
3	29	7.236069533411	1
3	45	11.300278986153	2
3	57	14.276312648964	3
3	85	20.963410764573	4
3	93	22.640893131425	5
3	101	23.920234200478	6
3	109	25.48537359126	7
3	127	29.174676606316	8
3	135	30.721193962884	9
3	147	33.667880426602	10
3	161	37.86577135163	11
3	177	42.547576222325	12
3	195	49.731215585913	13
3	203	50.764030302281	14
3	211	52.677899738065	15
3	219	53.69330392535	16
3	261	64.467658928708	17
3	287	70.138872720412	18
3	299	72.8056481636	19
3	315	76.881609251449	20
3	335	81.210444176502	21
3	361	87.541721778388	22
3	373	90.367658030052	23
3	381	92.080556368987	24
3	389	93.69601819164	25
3	429	104.380680824198	26
3	449	111.464190744175	27
3	457	113.06812742629	28
3	469	115.729328935964	29
3	489	119.984322716462	30
3	497	121.492825780548	31
3	505	122.886119096469	32
3	523	126.875982403951	33
3	535	129.905476189365	34
3	543	130.998678997554	35
3	557	134.108867421583	36
3	565	135.837040204395	37
3	587	142.287962123132	38
3	599	145.665165474125	39
3	661	165.401390699186	40
3	677	169.931310157716	41
3	685	171.300346780104	42
3	693	172.989086459368	43
3	701	174.672476882192	44
3	709	175.97438602798	45
3	717	177.947096686981	46
3	725	179.322313837874	47
3	743	184.177043089858	48
3	751	186.097219053994	49
3	763	188.467307725722	50
3	783	192.899888911344	51
3	803	199.894984871865	52
3	825	207.668892372687	53
3	833	208.97035152163	54
3	841	210.589515178106	55
3	851	213.085320417697	56
3	859	214.321272709127	57
3	871	218.945911099328	58
3	897	225.242326951702	59
3	905	226.937665951572	60
3	951	239.173506865988	61
4	21	6.02295409778	0
4	43	11.264355872409	1
4	55	14.262512976099	2
4	63	15.295821996472	3
4	69	16.949062498412	4
4	83	20.928353582732	5
4	107	25.474315758243	6
4	159	37.842566333516	7
4	175	42.510739374513	8
4	193	49.710501198242	9
4	209	52.662663640185	10
4	225	55.487861324113	11
4	231	56.875643780873	12
4	237	58.021621435806	13
4	297	72.79384351341	14
4	307	75.576627560747	15
4	327	80.136214971966	16
4	347	84.555921500501	17
4	353	85.660061040954	18
4	371	90.350628885748	19
4	379	92.068720382741	20
4	387	93.664034995529	21
4	405	98.471368983783	22
4	415	101.134644674756	23
4	427	104.342556455715	24
4	447	111.453596161958	25
4	455	113.05694442192	26
4	467	115.695379466328	27
4	475	117.254543920686	28
4	481	118.260622218859	29
4	487	119.95546906759	30
4	495	121.475661696115	31
4	521	126.865346304127	32
4	533	129.895259152208	33
4	563	135.823853394726	34
4	579	140.966031507359	35
4	585	142.245441984353	36
4	607	149.003801278901	37
4	627	154.819560309195	38
4	643	159.667424536051	39
4	653	163.433879674647	40
4	659	165.379109867062	41
4	675	169.920804147055	42
4	707	175.95953476781	43
4	715	177.930976235884	44
4	735	182.197744929439	45
4	749	186.076463285507	46
4	761	188.451236509647	47
4	775	191.543364788132	48
4	793	196.605355586159	49
4	817	206.401389032751	50
4	823	207.639365143511	51
4	849	213.068896559831	52
4	857	214.297079225454	53
4	869	218.923923634263	54
4	883	222.576317958781	55
4	889	223.640960932578	56
4	943	237.598332163808	57
5	46	11.310278986153	0
5	102	23.930234200478	1
5	128	29.184676606316	2
5	162	37.87577135163	3
5	196	49.741215585913	4
5	204	50.774030302281	5
5	212	52.687899738065	6
5	288	70.148872720412	7
5	336	81.220444176502	8
5	430	104.390680824198	9
5	450	111.474190744175	10
5	470	115.739328935964	11
5	490	119.994322716462	12
5	498	121.502825780548	13
5	506	122.896119096469	14
5	524	126.885982403951	15
5	536	129.915476189365	16
5	588	142.297962123132	17
5	678	169.941310157716	18
5	686	171.310346780104	19
5	710	175.98438602798	20
5	718	177.957096686981	21
5	726	179.332313837874	22
5	752	186.107219053994	23
5	804	199.904984871865	24
5	826	207.678892372687	25
5	852	213.095320417697	26
5	860	214.331272709127	27
5	872	218.955911099328	28

