version 2
run General-1-20231008-01:00:11-9078
attr configname General
attr datetime 20231008-01:00:11
attr experiment General
attr inifile omnetpp.ini
attr iterationvars ""
attr iterationvarsf ""
attr measurement ""
attr network Reliability
attr processid 9078
attr repetition 1
attr replication #1
attr resultdir results
attr runnumber 1
attr seedset 1
param Reliability.node[*].transmissionTime "uniform(1s, 2s)"
param Reliability.node[*].delayTime "uniform(0.01s, 0.2s)"
param Reliability.node[*].processingTime exponential(0.01s)
param Reliability.node[0].lossProbability 0
param Reliability.node[1].lossProbability 0.1
param Reliability.node[2].lossProbability 0.2
param Reliability.node[3].lossProbability 0.3
param Reliability.node[4].lossProbability 0.4
param Reliability.node[5].lossProbability 0.5

vector 0 Reliability.node[0] txVector ETV
vector 1 Reliability.node[1] txVector ETV
vector 2 Reliability.node[3] txVector ETV
vector 3 Reliability.node[4] txVector ETV
vector 4 Reliability.node[2] txVector ETV
vector 5 Reliability.node[5] rxVector ETV
0	1	0.089234179703	0
0	5	2.086418987836	1
0	9	3.388751555586	2
0	17	4.785332281727	3
0	25	6.470551782407	4
0	33	7.927756591587	5
0	35	9.241180776273	6
0	43	10.933503393204	7
0	51	11.992746590291	8
0	59	13.684623703015	9
0	67	15.308653686316	10
0	71	16.756547210858	11
0	79	18.659917382178	12
0	83	19.925464039789	13
0	91	21.491376068331	14
0	99	22.905432054428	15
0	103	24.045398174673	16
0	107	25.631953213485	17
0	113	27.079933396429	18
0	121	28.732232274609	19
0	127	30.355904480797	20
0	135	32.251790696178	21
0	143	34.038742170092	22
0	147	35.942121686535	23
0	155	37.714860829879	24
0	159	39.623395975335	25
0	165	40.892397025023	26
0	169	42.364872066426	27
0	175	44.061690229113	28
0	177	45.98471476988	29
0	181	47.696239526738	30
0	183	49.092552814987	31
0	185	50.199918123316	32
0	189	51.709728401508	33
0	195	53.248559467615	34
0	197	54.527743148272	35
0	205	56.113502416181	36
0	213	57.830894018177	37
0	217	58.967349245332	38
0	219	60.904539571263	39
0	227	62.820949444434	40
0	233	63.892923727518	41
0	237	65.145249474214	42
0	241	67.083961172148	43
0	249	68.93078997161	44
0	251	70.690138770852	45
0	253	72.341259336218	46
0	259	73.380942838153	47
0	263	74.912769284452	48
0	271	76.29291046027	49
0	275	78.057152072786	50
0	277	79.267326085017	51
0	283	81.020081643368	52
0	291	82.213515924177	53
0	299	83.941527564431	54
0	307	85.175889650712	55
0	315	86.183892361474	56
0	321	88.110073788444	57
0	325	89.284029454112	58
0	333	90.977214652233	59
0	337	92.153410912611	60
0	345	94.039100773519	61
0	347	95.883835218733	62
0	355	97.789227530712	63
0	363	99.739270837864	64
0	369	101.054515644096	65
0	373	102.842444878191	66
0	379	103.85831785796	67
0	383	105.725835312743	68
0	385	107.699618855378	69
0	391	109.304334956108	70
0	397	110.589911233288	71
0	403	112.344993416107	72
0	409	114.015782207138	73
0	415	115.4172617927	74
0	419	117.391063874009	75
0	427	118.664964198953	76
0	431	120.327684013758	77
0	439	121.626484237731	78
0	447	123.145495866545	79
0	451	124.918346297348	80
0	453	126.901163414007	81
0	461	128.082776270227	82
0	469	129.605062838297	83
0	473	131.521368390068	84
0	481	132.740051293399	85
0	489	133.988084852582	86
0	497	135.878601970969	87
0	503	137.532739318328	88
0	507	139.052091138557	89
0	511	140.362418976732	90
0	517	142.207128586134	91
0	521	144.033535579572	92
0	529	145.080853808558	93
0	533	146.851092537752	94
0	541	148.164847919139	95
0	543	149.947597335678	96
0	547	151.938069116677	97
0	555	153.297629420766	98
0	559	154.843700226517	99
0	567	156.301851104833	100
0	575	157.668394202022	101
0	581	159.223921739152	102
0	587	160.449312215094	103
0	593	162.329165319801	104
0	595	163.818172620731	105
0	599	165.021846949244	106
0	605	166.402863073982	107
0	609	168.362297391174	108
0	615	169.926506136432	109
0	621	171.432232357217	110
0	629	173.248239862621	111
0	635	175.09409134754	112
0	639	176.237514396087	113
0	641	177.917533542384	114
0	649	179.501493330701	115
0	657	181.248431825201	116
0	665	183.239882394095	117
0	671	184.858395962632	118
0	679	186.809589747228	119
0	687	188.424893979105	120
0	695	190.156694393494	121
0	703	192.046069141832	122
0	711	194.028486586298	123
0	717	195.94950444799	124
0	725	197.255076062056	125
0	733	199.114565381436	126
0	735	200.44800464565	127
0	743	202.342701254301	128
0	751	203.590097289654	129
0	757	205.231002550228	130
0	761	206.382158588274	131
0	765	207.795745001063	132
0	771	209.235149437683	133
0	773	210.634302835567	134
0	777	211.909773022989	135
0	781	213.407023111945	136
0	785	214.990461642975	137
0	793	216.807296755379	138
0	795	218.518392074741	139
0	797	219.711852645855	140
0	803	220.780283706151	141
0	807	222.735493878024	142
0	813	224.559731719438	143
0	821	225.572868074179	144
0	825	227.186422247561	145
0	833	228.944700511061	146
0	839	229.981788479146	147
0	845	230.999859436071	148
0	847	232.39665854618	149
0	855	234.259570268104	150
0	861	235.70881702181	151
0	869	237.193245465756	152
0	875	238.4415066907	153
0	881	239.689033239736	154
1	3	0.126198958082	0
1	7	2.098006083808	1
1	11	3.403660327164	2
1	19	4.797619525793	3
1	27	6.48618523472	4
1	37	9.272086945503	5
1	45	10.954606033513	6
1	53	12.006537485035	7
1	61	13.705430514915	8
1	69	15.342578292481	9
1	73	16.767819756178	10
1	81	18.676681721663	11
1	85	19.944981621041	12
1	93	21.513230855718	13
1	101	22.931153648116	14
1	105	24.078770138074	15
1	109	25.664222042345	16
1	115	27.094415990383	17
1	123	28.756132986943	18
1	129	30.371492238036	19
1	137	32.262452813534	20
1	145	34.057267808496	21
1	149	35.95378140387	22
1	157	37.734625487534	23
1	161	39.651215606804	24
1	167	40.915974670451	25
1	171	42.375554856692	26
1	179	45.996041755416	27
1	187	50.210995481465	28
1	191	51.727776386445	29
1	199	54.572674875625	30
1	207	56.132994380795	31
1	215	57.841511896666	32
1	221	60.929770268224	33
1	229	62.865146010421	34
1	235	63.916542705726	35
1	239	65.159887843365	36
1	243	67.096703537693	37
1	255	72.368072777265	38
1	261	73.392100719139	39
1	265	74.930775455167	40
1	273	76.305302347346	41
1	279	79.278014618998	42
1	285	81.040283191537	43
1	293	82.230912792089	44
1	301	83.961118981917	45
1	309	85.211974058631	46
1	317	86.218992567574	47
1	323	88.121424308445	48
1	327	89.294157395749	49
1	335	90.99125027502	50
1	339	92.171054709695	51
1	349	95.899994863027	52
1	357	97.802990635806	53
1	365	99.771609706271	54
1	371	101.073983947153	55
1	375	102.852954769651	56
1	381	103.88374323464	57
1	387	107.727270759688	58
1	393	109.323173998372	59
1	399	110.611886411745	60
1	405	112.360987688478	61
1	411	114.029600434451	62
1	417	115.438587648356	63
1	421	117.401164374614	64
1	429	118.678114159756	65
1	433	120.34546495605	66
1	441	121.651219502536	67
1	449	123.167726816035	68
1	455	126.927869033669	69
1	463	128.116197772206	70
1	471	129.639101879067	71
1	475	131.537181377434	72
1	483	132.769134577603	73
1	491	134.013709132657	74
1	499	135.890163195149	75
1	505	137.558124269167	76
1	509	139.067082419423	77
1	513	140.380150421802	78
1	519	142.236377983006	79
1	523	144.056386133912	80
1	531	145.104011369788	81
1	535	146.863660337587	82
1	545	149.961167633425	83
1	549	151.956144200902	84
1	557	153.315103890248	85
1	561	154.875531199671	86
1	569	156.331681243091	87
1	577	157.681539683456	88
1	583	159.244327642532	89
1	589	160.465582209081	90
1	597	163.829100533132	91
1	601	165.045704226925	92
1	607	166.429157485281	93
1	611	168.373717977743	94
1	617	169.948361142878	95
1	623	171.442701297793	96
1	631	173.26383947465	97
1	637	175.104907645287	98
1	643	177.936055463402	99
1	651	179.517515520571	100
1	659	181.273550409571	101
1	667	183.249986577509	102
1	673	184.891977155655	103
1	681	186.837779237053	104
1	689	188.458895208743	105
1	697	190.187449706731	106
1	705	192.059170309783	107
1	713	194.038945314718	108
1	719	195.966127166756	109
1	727	197.27325220945	110
1	737	200.460292276846	111
1	745	202.357342165961	112
1	753	203.601464735181	113
1	759	205.260414875724	114
1	763	206.409105905608	115
1	767	207.807493493171	116
1	775	210.644833059608	117
1	779	211.927092235476	118
1	783	213.44335121578	119
1	787	215.009484846442	120
1	799	219.743026655121	121
1	805	220.795658690076	122
1	809	222.755507349658	123
1	815	224.574085903317	124
1	823	225.58672427896	125
1	827	227.200278178727	126
1	835	228.957621084348	127
1	841	230.0034910857	128
1	849	232.433578913328	129
1	857	234.294196478733	130
1	863	235.738429540789	131
1	871	237.208740536573	132
1	877	238.451614992989	133
1	883	239.702070453302	134
2	13	3.418714852489	0
2	29	6.498392966889	1
2	55	12.031830566622	2
2	87	19.963880678448	3
2	95	21.531009206673	4
2	163	39.720445637459	5
2	245	67.108989598684	6
2	257	72.386485802825	7
2	287	81.068586856433	8
2	295	82.264752463731	9
2	329	89.333716784302	10
2	359	97.821991891925	11
2	367	99.789460077643	12
2	395	109.33395062929	13
2	401	110.621933153945	14
2	477	131.554104536106	15
2	501	135.901726130467	16
2	551	152.00292967695	17
2	571	156.348221717966	18
2	579	157.693820066391	19
2	591	160.49160704279	20
2	603	165.079096911364	21
2	613	168.413196726303	22
2	619	169.963958130324	23
2	645	177.946337229406	24
2	653	179.536318797451	25
2	661	181.28392806215	26
2	729	197.286359499707	27
2	739	200.477575204972	28
2	769	207.826031796717	29
2	811	222.766086752172	30
2	817	224.586434680044	31
2	829	227.212090690137	32
2	859	234.320683414726	33
2	865	235.758173734528	34
2	885	239.728557356859	35
3	15	3.447443089158	0
3	23	4.831328487478	1
3	31	6.520979739001	2
3	41	9.310154836481	3
3	49	10.985379096895	4
3	57	12.042015142402	5
3	65	13.731233612601	6
3	77	16.812887779676	7
3	89	19.976507522084	8
3	97	21.548685681617	9
3	119	27.12966182341	10
3	133	30.401330180506	11
3	141	32.295866735623	12
3	153	35.993615012779	13
3	203	54.613387117328	14
3	211	56.178494641843	15
3	225	60.972875142022	16
3	247	67.136649398855	17
3	269	74.978675555139	18
3	289	81.081642557904	19
3	297	82.286369847372	20
3	305	83.994321534621	21
3	313	85.238873165473	22
3	331	89.347784221862	23
3	343	92.24186737453	24
3	353	95.927610541089	25
3	361	97.834851396982	26
3	425	117.464455423055	27
3	437	120.382540415224	28
3	445	121.676109325536	29
3	459	126.957056330846	30
3	467	128.156997027442	31
3	479	131.564194062461	32
3	487	132.793510712486	33
3	495	134.046773907007	34
3	527	144.097993679167	35
3	539	146.895084047867	36
3	553	152.015199408746	37
3	565	154.922228802638	38
3	573	156.36031211275	39
3	627	171.48794286024	40
3	647	177.999721395655	41
3	655	179.552743412769	42
3	663	181.29430952563	43
3	677	184.92069596204	44
3	685	186.901150062407	45
3	693	188.489326785497	46
3	701	190.219327721878	47
3	709	192.110300257388	48
3	723	195.990053757513	49
3	731	197.306256424961	50
3	741	200.494973317738	51
3	749	202.417701810748	52
3	791	215.04216563627	53
3	819	224.602757615852	54
3	831	227.226226288328	55
3	853	232.465676952747	56
3	867	235.77937306683	57
4	21	4.810227684292	0
4	39	9.299756457689	1
4	47	10.970072420434	2
4	63	13.718721724046	3
4	75	16.778015325729	4
4	111	25.679291653915	5
4	117	27.118311470973	6
4	125	28.780539776798	7
4	131	30.381609616173	8
4	139	32.28108954985	9
4	151	35.971269231305	10
4	173	42.392652654834	11
4	193	51.741038104924	12
4	201	54.587261054409	13
4	209	56.162911754039	14
4	223	60.952252615041	15
4	231	62.878356953421	16
4	267	74.965597801726	17
4	281	79.289016224163	18
4	303	83.976187505144	19
4	311	85.228629197251	20
4	319	86.238388339983	21
4	341	92.209206747374	22
4	351	95.914245754763	23
4	377	102.888038788153	24
4	389	107.742673008697	25
4	407	112.373734920932	26
4	413	114.047843453221	27
4	423	117.427141385554	28
4	435	120.371667977401	29
4	443	121.661913346847	30
4	457	126.938628381112	31
4	465	128.128747210246	32
4	485	132.780849338958	33
4	493	134.025365802621	34
4	515	140.399948865319	35
4	525	144.075808396002	36
4	537	146.877896080458	37
4	563	154.887279439197	38
4	585	159.260433647846	39
4	625	171.464634940395	40
4	633	173.284519797044	41
4	669	183.261109436197	42
4	675	184.90912289277	43
4	683	186.871403596375	44
4	691	188.477422076758	45
4	699	190.200519000973	46
4	707	192.07613455984	47
4	715	194.07689553601	48
4	721	195.97640383111	49
4	747	202.389101644905	50
4	755	203.614043505203	51
4	789	215.023111932191	52
4	801	219.790056451643	53
4	837	228.968954370432	54
4	843	230.028194367353	55
4	851	232.44370575198	56
4	873	237.229879718342	57
4	879	238.475371339271	58
5	32	6.530979739001	0
5	58	12.052015142402	1
5	78	16.822887779676	2
5	90	19.986507522084	3
5	98	21.558685681617	4
5	120	27.13966182341	5
5	142	32.305866735623	6
5	306	84.004321534621	7
5	362	97.844851396982	8
5	426	117.474455423055	9
5	480	131.574194062461	10
5	528	144.107993679167	11
5	540	146.905084047867	12
5	554	152.025199408746	13
5	628	171.49794286024	14
5	656	179.562743412769	15
5	664	181.30430952563	16
5	686	186.911150062407	17
5	724	196.000053757513	18
5	750	202.427701810748	19
5	832	227.236226288328	20
5	854	232.475676952747	21
5	868	235.78937306683	22

