version 2
run General-2-20231008-01:00:11-9078
attr configname General
attr datetime 20231008-01:00:11
attr experiment General
attr inifile omnetpp.ini
attr iterationvars ""
attr iterationvarsf ""
attr measurement ""
attr network Reliability
attr processid 9078
attr repetition 2
attr replication #2
attr resultdir results
attr runnumber 2
attr seedset 2
param Reliability.node[*].transmissionTime "uniform(1s, 2s)"
param Reliability.node[*].delayTime "uniform(0.01s, 0.2s)"
param Reliability.node[*].processingTime exponential(0.01s)
param Reliability.node[0].lossProbability 0
param Reliability.node[1].lossProbability 0.1
param Reliability.node[2].lossProbability 0.2
param Reliability.node[3].lossProbability 0.3
param Reliability.node[4].lossProbability 0.4
param Reliability.node[5].lossProbability 0.5

vector 0 Reliability.node[0] txVector ETV
vector 1 Reliability.node[1] txVector ETV
vector 2 Reliability.node[2] txVector ETV
vector 3 Reliability.node[4] txVector ETV
vector 4 Reliability.node[5] rxVector ETV
vector 5 Reliability.node[3] txVector ETV
0	1	0.092839031499	0
0	3	1.277921112972	1
0	9	3.20946197656	2
0	13	4.363888652083	3
0	21	5.66354332936	4
0	25	7.250340308314	5
0	33	9.104315599212	6
0	37	10.39218441911	7
0	45	11.519344390854	8
0	53	12.687167705288	9
0	59	14.074060355797	10
0	67	15.774812699314	11
0	75	17.033545870352	12
0	83	18.577754025831	13
0	91	20.324385438831	14
0	95	21.926202557301	15
0	101	23.886516287243	16
0	107	25.819144848054	17
0	115	27.372778693931	18
0	119	28.385796031933	19
0	125	29.747823438626	20
0	133	31.515311697284	21
0	137	32.628087912938	22
0	145	34.275102138771	23
0	153	35.936583463354	24
0	157	37.35772183097	25
0	165	38.90106706393	26
0	173	40.79621280266	27
0	179	42.419775984269	28
0	187	43.967683762564	29
0	189	45.180451133541	30
0	193	46.180574717718	31
0	197	47.367861261844	32
0	205	49.152653184739	33
0	211	51.141162890961	34
0	215	52.302629457807	35
0	221	54.022977481849	36
0	225	55.835759433472	37
0	227	56.923321942586	38
0	235	57.953911420444	39
0	243	59.312151728218	40
0	251	60.931793189628	41
0	259	62.804920529734	42
0	265	63.969339621041	43
0	267	65.746442624854	44
0	275	67.249221372439	45
0	283	68.402787047226	46
0	287	69.427988470785	47
0	291	70.782160893336	48
0	293	71.983003241729	49
0	301	73.371337419629	50
0	309	74.75299999702	51
0	317	76.62956186549	52
0	321	78.20534086439	53
0	323	79.413843358887	54
0	329	81.281224900411	55
0	331	83.086356440579	56
0	339	84.919517683584	57
0	347	86.78569792539	58
0	349	88.555557582314	59
0	355	89.886304610661	60
0	361	91.82308568528	61
0	369	93.203878266291	62
0	373	94.854970456354	63
0	377	96.645214254755	64
0	385	97.820858940968	65
0	389	98.996583130464	66
0	397	100.20320188163	67
0	403	101.378800956553	68
0	407	103.031707905719	69
0	411	104.195047175532	70
0	419	105.709449231645	71
0	427	107.075335797874	72
0	431	108.927598724162	73
0	435	110.13564034111	74
0	443	111.300418963909	75
0	447	112.500315144911	76
0	453	113.936985030558	77
0	457	115.30987791463	78
0	461	116.884324256817	79
0	465	118.613325060832	80
0	469	120.450068590252	81
0	475	121.737703849117	82
0	481	123.115706260104	83
0	485	124.649807955858	84
0	491	125.740275936222	85
0	497	127.485814750914	86
0	505	128.879218973706	87
0	511	130.814372534652	88
0	515	132.105710251976	89
0	523	134.002115020782	90
0	529	135.882413972656	91
0	535	137.207470776069	92
0	543	139.161759411705	93
0	549	140.793026808904	94
0	557	141.953303730836	95
0	563	143.658806756161	96
0	567	145.034188188867	97
0	573	146.236087691526	98
0	579	148.016845213736	99
0	585	149.47653551006	100
0	593	151.011278501267	101
0	601	152.260012789417	102
0	609	153.748669321436	103
0	615	155.260118046796	104
0	619	157.066453258295	105
0	623	158.775358803358	106
0	625	160.093257299878	107
0	633	161.665266118033	108
0	641	162.969140419524	109
0	645	164.708011270288	110
0	651	166.064521079903	111
0	655	168.037191443864	112
0	663	169.580510086633	113
0	671	170.733377496034	114
0	677	172.280191420831	115
0	685	173.341345184969	116
0	693	175.143374186263	117
0	701	176.998474173502	118
0	709	178.35850049441	119
0	715	179.793623114957	120
0	721	181.369777466657	121
0	729	182.816245575922	122
0	733	183.844754149227	123
0	739	185.436633218566	124
0	747	187.350128711687	125
0	753	189.154847353018	126
0	761	190.496175299185	127
0	767	192.269361864329	128
0	775	194.113453953313	129
0	783	195.831818094263	130
0	789	197.070583592188	131
0	797	198.883101288015	132
0	801	200.159288594751	133
0	805	201.262037873054	134
0	809	202.48293084071	135
0	813	204.436622384721	136
0	821	205.557463134192	137
0	827	206.755558768073	138
0	831	208.182936232788	139
0	839	209.611141619756	140
0	845	210.917464843736	141
0	853	212.19511791204	142
0	857	213.684861766192	143
0	865	215.362805205648	144
0	871	216.825189362065	145
0	879	218.588389584812	146
0	887	220.509714331961	147
0	895	221.899605640693	148
0	899	223.283234792313	149
0	905	224.837115440535	150
0	913	226.414518811524	151
0	921	227.738552009005	152
0	925	229.617766497208	153
0	933	231.196514199738	154
0	941	233.118943518976	155
0	943	234.738576514663	156
0	947	236.182233499845	157
0	951	237.2921656985	158
0	957	238.405799628019	159
0	965	239.848084684245	160
1	5	1.317434556699	0
1	11	3.231463865926	1
1	15	4.376992391739	2
1	23	5.686264212501	3
1	27	7.267157176147	4
1	35	9.115550768523	5
1	39	10.411266288376	6
1	47	11.533924688784	7
1	55	12.712948912473	8
1	61	14.117456981378	9
1	69	15.801376699264	10
1	77	17.044402483285	11
1	85	18.59340222989	12
1	93	20.348865428664	13
1	97	21.941754208592	14
1	103	23.908937092964	15
1	109	25.837669618843	16
1	117	27.398744154809	17
1	121	28.416858018445	18
1	127	29.782412970969	19
1	135	31.52906967093	20
1	139	32.66975209208	21
1	147	34.286971184785	22
1	155	35.955720902445	23
1	159	37.370217192862	24
1	167	38.937537541715	25
1	175	40.808157296612	26
1	181	42.441799745819	27
1	191	45.19142611819	28
1	195	46.191576104447	29
1	199	47.385407683641	30
1	207	49.163154209896	31
1	213	51.171576328101	32
1	217	52.313158068193	33
1	223	54.040871259157	34
1	229	56.937740146872	35
1	237	57.964103097039	36
1	245	59.325582643618	37
1	253	60.948430117471	38
1	261	62.820903031132	39
1	269	65.787849649845	40
1	277	67.288538459456	41
1	285	68.440996520317	42
1	289	69.456439926662	43
1	295	72.019026854736	44
1	303	73.414799017295	45
1	311	74.774319149476	46
1	319	76.644990315524	47
1	325	79.439561419283	48
1	333	83.098660560578	49
1	341	84.966014027214	50
1	351	88.56815319753	51
1	357	89.906589479164	52
1	363	91.835049604002	53
1	371	93.224125842571	54
1	375	94.87933939838	55
1	379	96.658158156395	56
1	387	97.831684479772	57
1	391	99.012106716202	58
1	399	100.225695822816	59
1	405	101.395296783998	60
1	409	103.054729752069	61
1	413	104.214435866575	62
1	421	105.754699082427	63
1	429	107.095578417736	64
1	433	108.937828509973	65
1	437	110.168005148971	66
1	445	111.3221585758	67
1	449	112.510466851198	68
1	455	113.947992888486	69
1	459	115.325261821845	70
1	463	116.895672837915	71
1	467	118.628652648905	72
1	471	120.494215408717	73
1	477	121.751819208453	74
1	483	123.126150897321	75
1	487	124.666992827252	76
1	493	125.754821429411	77
1	499	127.498734956768	78
1	507	128.891526921636	79
1	513	130.828281184492	80
1	517	132.132582423224	81
1	525	134.01699874543	82
1	531	135.918976678385	83
1	537	137.217495631156	84
1	545	139.178282925832	85
1	551	140.803344832735	86
1	559	141.964340335164	87
1	565	143.670973331576	88
1	569	145.067946139357	89
1	575	146.246941956468	90
1	581	148.046648523894	91
1	587	149.501941200193	92
1	595	151.024698834824	93
1	603	152.279815726842	94
1	611	153.774097798105	95
1	617	155.270466813353	96
1	621	157.084160169503	97
1	627	160.107916149407	98
1	635	161.677518112697	99
1	643	162.998902108784	100
1	647	164.795523294241	101
1	653	166.076809455089	102
1	657	168.079733932958	103
1	665	169.595253785916	104
1	673	170.749839917184	105
1	679	172.294855863288	106
1	687	173.353048147062	107
1	695	175.163976139409	108
1	703	177.008852103923	109
1	711	178.392881925928	110
1	717	179.805670997816	111
1	723	181.394150419873	112
1	731	182.833369579293	113
1	735	183.867098166103	114
1	741	185.452604772768	115
1	749	187.361628328135	116
1	755	189.190495001617	117
1	763	190.50801516607	118
1	769	192.28155612223	119
1	777	194.155571096691	120
1	785	195.853632814772	121
1	791	197.082093962987	122
1	799	198.89383226908	123
1	803	200.175718937863	124
1	807	201.272479700368	125
1	811	202.497996028649	126
1	815	204.448974513389	127
1	823	205.571772584739	128
1	829	206.766628921961	129
1	833	208.201092628569	130
1	841	209.623139814702	131
1	847	210.929091537859	132
1	855	212.225651092589	133
1	859	213.698440764135	134
1	867	215.374295758509	135
1	873	216.840920710073	136
1	881	218.607142619923	137
1	889	220.520810972544	138
1	897	221.918380620614	139
1	901	223.296059586657	140
1	907	224.851025488376	141
1	915	226.447415432906	142
1	923	227.762212074832	143
1	927	229.630210290271	144
1	935	231.224007263166	145
1	945	234.763794190288	146
1	949	236.198521088884	147
1	953	237.312414967607	148
1	959	238.419295497779	149
1	967	239.870452014105	150
2	7	1.332888171871	0
2	17	4.40404234268	1
2	29	7.2791049801	2
2	41	10.423774457474	3
2	49	11.554152505602	4
2	57	12.724221393347	5
2	63	14.129906655054	6
2	71	15.826362786498	7
2	79	17.07171202308	8
2	87	18.654318531441	9
2	105	23.925948895339	10
2	123	28.43771109105	11
2	149	34.331482597166	12
2	169	38.955306993738	13
2	183	42.479327299843	14
2	201	47.401783102912	15
2	209	49.177235315903	16
2	219	52.339196877716	17
2	231	56.971892704713	18
2	247	59.383846111714	19
2	271	65.809244844406	20
2	279	67.304418603305	21
2	305	73.424845761584	22
2	335	83.113923331877	23
2	343	84.997268635856	24
2	353	88.579784111576	25
2	381	96.669502404447	26
2	393	99.023021064098	27
2	415	104.22898470587	28
2	439	110.180702093439	29
2	451	112.549409241378	30
2	479	121.782062567334	31
2	489	124.68141699563	32
2	495	125.766692987989	33
2	509	128.926915584466	34
2	533	135.928995522706	35
2	547	139.19232897992	36
2	553	140.828753184061	37
2	561	141.986754336747	38
2	583	148.058154003157	39
2	605	152.297569306225	40
2	637	161.719342121286	41
2	649	164.819021063707	42
2	659	168.109800178381	43
2	681	172.307633591665	44
2	697	175.179356870296	45
2	713	178.405672278527	46
2	719	179.815913358108	47
2	725	181.416761088826	48
2	743	185.468420892277	49
2	751	187.374728829794	50
2	779	194.177927862132	51
2	787	195.872566490011	52
2	793	197.095994162606	53
2	825	205.585835694119	54
2	835	208.217495679202	55
2	849	210.959061379588	56
2	869	215.385591853454	57
2	883	218.622374058819	58
2	891	220.534390325779	59
2	903	223.316353584774	60
2	909	224.861567408922	61
2	929	229.644648430867	62
2	937	231.235508716336	63
2	961	238.459798592401	64
3	19	4.415487745421	0
3	31	7.296141927992	1
3	43	10.436262997559	2
3	51	11.57990720681	3
3	65	14.14408628877	4
3	73	15.839567225836	5
3	81	17.086925414189	6
3	89	18.671310430451	7
3	113	25.875564136323	8
3	131	29.816699546211	9
3	143	32.713304526628	10
3	151	34.342920772152	11
3	163	37.410928907437	12
3	171	38.965715330716	13
3	185	42.490499192354	14
3	203	47.432162922523	15
3	233	56.982571892807	16
3	241	57.989461859359	17
3	249	59.399788450608	18
3	257	60.979426048148	19
3	273	65.833042958557	20
3	281	67.320872444855	21
3	299	72.065827673787	22
3	307	73.439093741724	23
3	315	74.833646945081	24
3	337	83.124364199191	25
3	345	85.009293284036	26
3	367	91.860070959177	27
3	383	96.684389515091	28
3	395	99.037340030846	29
3	417	104.283958717253	30
3	425	105.788350473194	31
3	441	110.196928034854	32
3	503	127.535648330695	33
3	521	132.179157292906	34
3	541	137.246668942144	35
3	555	140.865944774204	36
3	591	149.549008481728	37
3	599	151.050519790052	38
3	607	152.315642015798	39
3	631	160.146704801642	40
3	639	161.733522255084	41
3	661	168.120258177854	42
3	669	169.646154637726	43
3	683	172.329613477644	44
3	691	173.386914856048	45
3	699	175.21523134634	46
3	707	177.033728981438	47
3	727	181.435417111641	48
3	745	185.478944959303	49
3	759	189.251675748312	50
3	773	192.325206946593	51
3	781	194.19258327144	52
3	795	197.113051520178	53
3	819	204.493615776978	54
3	837	208.230783369923	55
3	851	210.973506478902	56
3	863	213.72360383509	57
3	877	216.866057550574	58
3	885	218.636525261691	59
3	893	220.57195733777	60
3	911	224.877965430818	61
3	919	226.491309615622	62
3	931	229.674151974022	63
3	939	231.250523272679	64
3	963	238.496827020686	65
3	971	239.908090770889	66
4	20	4.425487745421	0
4	52	11.58990720681	1
4	66	14.15408628877	2
4	74	15.849567225836	3
4	90	18.681310430451	4
4	114	25.885564136323	5
4	144	32.723304526628	6
4	152	34.352920772152	7
4	172	38.975715330716	8
4	258	60.989426048148	9
4	274	65.843042958557	10
4	300	72.075827673787	11
4	308	73.449093741724	12
4	316	74.843646945081	13
4	346	85.019293284036	14
4	368	91.870070959177	15
4	384	96.694389515091	16
4	418	104.293958717253	17
4	522	132.189157292906	18
4	592	149.559008481728	19
4	608	152.325642015798	20
4	632	160.156704801642	21
4	640	161.743522255084	22
4	662	168.130258177854	23
4	684	172.339613477644	24
4	692	173.396914856048	25
4	700	175.22523134634	26
4	728	181.445417111641	27
4	746	185.488944959303	28
4	796	197.123051520178	29
4	864	213.73360383509	30
4	878	216.876057550574	31
4	886	218.646525261691	32
4	894	220.58195733777	33
4	912	224.887965430818	34
4	964	238.506827020686	35
5	99	21.956164472616	0
5	111	25.865508537839	1
5	129	29.796734223014	2
5	141	32.682168168615	3
5	161	37.396678789693	4
5	177	40.825845786639	5
5	239	57.976309901838	6
5	255	60.965515111374	7
5	263	62.831003250716	8
5	297	72.043712184806	9
5	313	74.79532510703	10
5	327	79.452858411404	11
5	359	89.916604898399	12
5	365	91.847066927353	13
5	401	100.23631784976	14
5	423	105.777929266162	15
5	473	120.527851782517	16
5	501	127.509765925267	17
5	519	132.154270149049	18
5	527	134.033809117884	19
5	539	137.235225309302	20
5	571	145.09472232805	21
5	577	146.290286741357	22
5	589	149.521029797889	23
5	597	151.039558684447	24
5	613	153.785550411587	25
5	629	160.118610706485	26
5	667	169.616627088969	27
5	675	170.761974351436	28
5	689	173.367688125634	29
5	705	177.022668857659	30
5	737	183.910030127364	31
5	757	189.22626722007	32
5	765	190.53235424521	33
5	771	192.29649192329	34
5	817	204.475863130256	35
5	843	209.646252983613	36
5	861	213.710882152622	37
5	875	216.853700920533	38
5	917	226.475088077204	39
5	955	237.329024062774	40
5	969	239.881517960196	41

