version 2
run General-3-20231008-01:00:11-9078
attr configname General
attr datetime 20231008-01:00:11
attr experiment General
attr inifile omnetpp.ini
attr iterationvars ""
attr iterationvarsf ""
attr measurement ""
attr network Reliability
attr processid 9078
attr repetition 3
attr replication #3
attr resultdir results
attr runnumber 3
attr seedset 3
param Reliability.node[*].transmissionTime "uniform(1s, 2s)"
param Reliability.node[*].delayTime "uniform(0.01s, 0.2s)"
param Reliability.node[*].processingTime exponential(0.01s)
param Reliability.node[0].lossProbability 0
param Reliability.node[1].lossProbability 0.1
param Reliability.node[2].lossProbability 0.2
param Reliability.node[3].lossProbability 0.3
param Reliability.node[4].lossProbability 0.4
param Reliability.node[5].lossProbability 0.5

vector 0 Reliability.node[0] txVector ETV
vector 1 Reliability.node[1] txVector ETV
vector 2 Reliability.node[3] txVector ETV
vector 3 Reliability.node[2] txVector ETV
vector 4 Reliability.node[4] txVector ETV
vector 5 Reliability.node[5] rxVector ETV
0	1	0.114651601831	0
0	5	1.185376482154	1
0	11	2.69620408311	2
0	17	3.90344696173	3
0	25	5.360280184378	4
0	31	7.126106558903	5
0	39	8.432467185962	6
0	45	9.738830717583	7
0	51	11.714826145512	8
0	59	13.092820190894	9
0	65	14.408587439288	10
0	71	15.61194196816	11
0	75	17.42316972448	12
0	83	18.628580064582	13
0	91	19.990920523251	14
0	99	21.659055328299	15
0	107	22.961318941856	16
0	115	24.685258078458	17
0	123	25.861320193693	18
0	131	27.81342143875	19
0	139	29.63320216753	20
0	147	31.293528070044	21
0	151	33.121550187072	22
0	159	34.90648688639	23
0	167	36.078849785798	24
0	173	37.256063170568	25
0	177	38.399395485013	26
0	181	39.656601863052	27
0	189	41.307724628435	28
0	191	42.854855382653	29
0	193	44.34667093081	30
0	195	45.476329314826	31
0	201	47.336382777734	32
0	207	49.32767849865	33
0	209	50.667684423808	34
0	215	52.364434411587	35
0	221	53.446005454125	36
0	229	54.540886788001	37
0	237	55.694626994502	38
0	245	56.854274152849	39
0	253	58.141323917616	40
0	261	59.941381244758	41
0	269	61.036948059989	42
0	277	62.475950760605	43
0	279	63.521448067926	44
0	287	64.57708961384	45
0	291	66.093375366019	46
0	295	67.167413161207	47
0	301	68.528496936267	48
0	305	69.741391271889	49
0	313	70.925163587859	50
0	321	72.379475368723	51
0	323	73.602798346501	52
0	327	74.845776529821	53
0	329	76.120413999377	54
0	333	78.062328362908	55
0	341	79.741830170691	56
0	347	80.922570499662	57
0	355	82.715893177852	58
0	361	83.991445639241	59
0	363	85.603039475694	60
0	367	86.645070329612	61
0	373	87.74564804237	62
0	377	89.584551449936	63
0	385	91.066397838365	64
0	393	92.910673470307	65
0	399	94.582243718976	66
0	407	96.090401150357	67
0	415	97.1134241245	68
0	417	98.59051576357	69
0	421	100.091081314791	70
0	429	101.855235557841	71
0	437	103.775056167343	72
0	443	105.367530128756	73
0	447	107.000490662014	74
0	455	108.675300598215	75
0	463	110.246436224622	76
0	467	111.781411804096	77
0	471	113.193842870486	78
0	477	114.33165276337	79
0	485	115.847897244222	80
0	491	117.473405637849	81
0	499	118.964466949064	82
0	505	120.01352327813	83
0	513	121.760194372456	84
0	521	123.298799697613	85
0	525	125.244407015457	86
0	529	127.099955217052	87
0	537	128.826123213932	88
0	543	130.365873958521	89
0	549	131.586547612051	90
0	553	132.813752050117	91
0	561	134.208503924148	92
0	569	135.633858377185	93
0	573	136.78632163799	94
0	581	137.813959245641	95
0	587	139.529841219845	96
0	595	141.010533004372	97
0	603	142.481600806188	98
0	611	144.211574553816	99
0	615	145.972116450617	100
0	621	147.5213533154	101
0	629	149.048315572623	102
0	633	150.297005504673	103
0	639	151.454240186443	104
0	641	152.96020646377	105
0	647	154.021254532109	106
0	653	155.874665754451	107
0	661	157.322343165823	108
0	669	159.036716878717	109
0	675	160.84226321436	110
0	679	162.223104326357	111
0	683	163.444866235205	112
0	689	164.514985247818	113
0	693	165.688783694129	114
0	697	167.547815765325	115
0	703	168.634333905835	116
0	711	170.500349724969	117
0	715	172.461213943387	118
0	719	173.808782132647	119
0	725	175.32935867815	120
0	731	176.431835445181	121
0	733	177.755669537537	122
0	741	179.230626382936	123
0	749	181.098793613563	124
0	757	182.534231506359	125
0	763	184.260862373119	126
0	769	186.139670969058	127
0	775	187.297116526706	128
0	779	188.542314111326	129
0	787	189.980348947296	130
0	791	191.640012889473	131
0	799	193.391818780523	132
0	807	194.687404756971	133
0	811	196.587095324952	134
0	819	197.871335510235	135
0	827	199.555014075549	136
0	833	201.535349707422	137
0	841	202.98035049981	138
0	845	204.001953213779	139
0	847	205.564629273792	140
0	855	207.240590322833	141
0	861	209.163951026579	142
0	869	210.986940045213	143
0	873	212.122132198257	144
0	877	213.665129867918	145
0	885	214.844418446603	146
0	887	216.627458793414	147
0	893	218.40980472446	148
0	899	220.244487638888	149
0	905	221.329490979505	150
0	913	223.290032215952	151
0	917	225.231885641418	152
0	925	226.549684087351	153
0	931	228.00932694187	154
0	937	229.223469863484	155
0	945	230.941330011307	156
0	953	232.890975571542	157
0	961	234.008440249671	158
0	969	235.233743684438	159
0	977	236.514840759176	160
0	985	238.478758882105	161
1	3	0.14297423212	0
1	7	1.217720790617	1
1	13	2.706732472287	2
1	19	3.923920757162	3
1	27	5.406642398294	4
1	33	7.144940438348	5
1	41	8.444976932191	6
1	47	9.759989838655	7
1	53	11.725793644795	8
1	61	13.111093152163	9
1	67	14.429189941011	10
1	73	15.6266280099	11
1	77	17.435418408789	12
1	85	18.645838723442	13
1	93	20.005073384982	14
1	101	21.685507154136	15
1	109	22.977764199907	16
1	117	24.741615597774	17
1	125	25.882765031971	18
1	133	27.831891061964	19
1	141	29.667733371269	20
1	149	31.306189781177	21
1	153	33.167340885453	22
1	161	34.920030902458	23
1	169	36.089614532971	24
1	175	37.271409691588	25
1	179	38.41263398895	26
1	183	39.673121498895	27
1	197	45.488793409764	28
1	203	47.348098609005	29
1	211	50.691483878177	30
1	217	52.378111535463	31
1	223	53.461212513261	32
1	231	54.572099827854	33
1	239	55.72174957129	34
1	247	56.882213043257	35
1	255	58.164037722637	36
1	263	59.969515906438	37
1	271	61.066205356568	38
1	281	63.545024642239	39
1	289	64.591685874709	40
1	293	66.109893795605	41
1	297	67.198960388516	42
1	303	68.543948803832	43
1	307	69.757124615494	44
1	315	70.940240840727	45
1	325	73.619328140877	46
1	331	76.13365425045	47
1	335	78.088185800655	48
1	343	79.765449287631	49
1	349	80.942630014078	50
1	357	82.727463107855	51
1	365	85.618439735656	52
1	369	86.662040342461	53
1	375	87.767368784795	54
1	379	89.607857904322	55
1	387	91.081611265466	56
1	395	92.926842158141	57
1	401	94.612761169163	58
1	409	96.102470789306	59
1	419	98.605921087361	60
1	423	100.103383494349	61
1	431	101.885084516903	62
1	439	103.807792607674	63
1	445	105.39319346993	64
1	449	107.026137897761	65
1	457	108.697677849216	66
1	465	110.268179190073	67
1	469	111.825442860715	68
1	473	113.203864148716	69
1	479	114.350097308125	70
1	487	115.868998004909	71
1	493	117.497261401921	72
1	501	118.978074063207	73
1	507	120.032042861708	74
1	515	121.782853831626	75
1	523	123.310287939695	76
1	527	125.258385502616	77
1	531	127.117807358323	78
1	539	128.897036188827	79
1	545	130.394919634643	80
1	551	131.611147000558	81
1	555	132.823976877536	82
1	563	134.224065035601	83
1	571	135.667425084323	84
1	575	136.797408463955	85
1	583	137.829276040815	86
1	589	139.54072102905	87
1	597	141.020984183341	88
1	605	142.497119294729	89
1	613	144.225382514758	90
1	617	145.985756487758	91
1	623	147.535530868132	92
1	631	149.064233023466	93
1	635	150.307292525303	94
1	643	152.972163753541	95
1	649	154.064202172314	96
1	655	155.891709796742	97
1	663	157.334213823032	98
1	671	159.073578983299	99
1	677	160.865912644093	100
1	681	162.248826050909	101
1	685	163.472184845508	102
1	691	164.54460593119	103
1	695	165.709711805167	104
1	699	167.563531905235	105
1	705	168.64910976895	106
1	713	170.52688947853	107
1	717	172.480244795102	108
1	721	173.832052644399	109
1	727	175.351956397672	110
1	735	177.785844218015	111
1	743	179.248144633905	112
1	751	181.126935422303	113
1	759	182.567359330371	114
1	765	184.271043783219	115
1	771	186.157182231085	116
1	777	187.307805419633	117
1	781	188.55918710503	118
1	789	190.006159113635	119
1	793	191.651717703815	120
1	801	193.405029859309	121
1	809	194.702625690476	122
1	813	196.602806072642	123
1	821	197.882431942478	124
1	829	199.569731985875	125
1	835	201.548212428446	126
1	843	202.992919815667	127
1	849	205.584659165719	128
1	857	207.254024727138	129
1	863	209.189128565859	130
1	871	211.000035116935	131
1	875	212.137519615919	132
1	879	213.677939932234	133
1	889	216.643204104425	134
1	895	218.447427853795	135
1	901	220.273878255867	136
1	907	221.348882846438	137
1	915	223.306657525686	138
1	919	225.259909095102	139
1	927	226.572240163561	140
1	933	228.023248379206	141
1	939	229.244993666172	142
1	947	230.961056036052	143
1	955	232.915867580846	144
1	963	234.021027733526	145
1	971	235.263112309881	146
1	979	236.53879272383	147
1	987	238.490794322649	148
2	9	1.227910050438	0
2	29	5.42200556261	1
2	43	8.467650390914	2
2	79	17.463809508559	3
2	111	22.990083093449	4
2	135	27.848434942178	5
2	143	29.681065848885	6
2	155	33.179426524581	7
2	171	36.100899884689	8
2	199	45.516961870682	9
2	205	47.380691023432	10
2	213	50.714996332362	11
2	219	52.401099942261	12
2	225	53.47497865327	13
2	233	54.593459326502	14
2	265	59.984311257475	15
2	283	63.57029205402	16
2	299	67.209670515356	17
2	309	69.776714126489	18
2	317	70.953463692865	19
2	337	78.10367842367	20
2	345	79.784537555225	21
2	359	82.752122272723	22
2	371	86.672675500574	23
2	381	89.627464109344	24
2	389	91.111781845665	25
2	441	103.819144361388	26
2	533	127.128330458759	27
2	565	134.237518599213	28
2	585	137.840972061916	29
2	591	139.559018071928	30
2	619	145.996695117112	31
2	645	152.985932543579	32
2	651	154.082330494494	33
2	673	159.090175765872	34
2	701	167.616148962275	35
2	723	173.846231741975	36
2	737	177.819148844404	37
2	803	193.424316476036	38
2	815	196.615951114879	39
2	823	197.894918136253	40
2	831	199.58601806302	41
2	891	216.666641724659	42
2	897	218.464452619893	43
2	903	220.286994823457	44
2	921	225.287213034252	45
2	929	226.606997817695	46
2	941	229.256653156547	47
2	957	232.930420785982	48
2	973	235.275294940438	49
2	981	236.595978838426	50
2	989	238.502019374063	51
3	15	2.728601127249	0
3	21	3.938288845562	1
3	35	7.156646752768	2
3	49	9.786540951023	3
3	55	11.751264780413	4
3	63	13.124229793586	5
3	69	14.448014944666	6
3	87	18.667585871103	7
3	95	20.032567748103	8
3	103	21.698128391758	9
3	119	24.753000105224	10
3	127	25.897253727212	11
3	163	34.936668615989	12
3	185	39.684703443271	13
3	241	55.765339042202	14
3	249	56.892471636883	15
3	257	58.177312970897	16
3	273	61.105872461288	17
3	351	80.955699689564	18
3	397	92.94100235135	19
3	403	94.623305467248	20
3	411	96.125019474503	21
3	425	100.128934523061	22
3	433	101.895668227496	23
3	451	107.045223718267	24
3	459	108.715828000948	25
3	475	113.219116603707	26
3	481	114.369445515042	27
3	489	115.888775015312	28
3	495	117.508834901864	29
3	503	118.9966285611	30
3	509	120.046177517512	31
3	517	121.800915486271	32
3	541	128.915542639963	33
3	547	130.414577787142	34
3	557	132.834355318469	35
3	577	136.812218301501	36
3	599	141.03849205637	37
3	607	142.538695024434	38
3	625	147.55680109352	39
3	637	150.339249611735	40
3	657	155.909604515405	41
3	665	157.366737438436	42
3	687	163.492583935072	43
3	707	168.673540834286	44
3	729	175.36465413251	45
3	745	179.268478540626	46
3	753	181.162973613556	47
3	761	182.590805478649	48
3	767	184.286815803482	49
3	773	186.168829737488	50
3	783	188.583073011561	51
3	795	191.668483828133	52
3	837	201.569318014829	53
3	851	205.611249486846	54
3	859	207.281404806834	55
3	865	209.220056630297	56
3	881	213.695331857272	57
3	909	221.381038734148	58
3	935	228.035860551593	59
3	949	230.972634525675	60
3	965	234.032369241188	61
4	23	3.957225893101	0
4	37	7.180821105027	1
4	57	11.765752130801	2
4	81	17.480417964616	3
4	89	18.68138800543	4
4	97	20.048458233645	5
4	105	21.714714802057	6
4	113	23.000836388261	7
4	121	24.764235537805	8
4	129	25.910317439128	9
4	137	27.862741620972	10
4	145	29.699114339236	11
4	157	33.190367333482	12
4	165	34.953665406462	13
4	187	39.726041786903	14
4	227	53.48868873408	15
4	235	54.608043286816	16
4	243	55.778712025777	17
4	251	56.904904454959	18
4	259	58.193175427646	19
4	267	59.996935771639	20
4	275	61.121150336875	21
4	285	63.58199119167	22
4	311	69.796403467493	23
4	319	70.972416963128	24
4	339	78.11863710443	25
4	353	80.976345680414	26
4	383	89.656917862457	27
4	391	91.122899449611	28
4	405	94.636208058498	29
4	413	96.147604317024	30
4	427	100.15252534576	31
4	435	101.906889138128	32
4	453	107.06519905455	33
4	461	108.734293286667	34
4	483	114.401651382112	35
4	497	117.519702166667	36
4	511	120.084212695555	37
4	519	121.811278580608	38
4	535	127.13839762602	39
4	559	132.853601074606	40
4	567	134.265059026171	41
4	579	136.831844066413	42
4	593	139.572356926305	43
4	601	141.049421776669	44
4	609	142.553201551896	45
4	627	147.57024407216	46
4	659	155.929376548719	47
4	667	157.380083091364	48
4	709	168.702008676833	49
4	739	177.847780119278	50
4	747	179.279308148125	51
4	755	181.187904111615	52
4	785	188.603850982627	53
4	797	191.715774811031	54
4	805	193.470927588548	55
4	817	196.637287036534	56
4	825	197.914185322429	57
4	839	201.585515462667	58
4	853	205.624066899902	59
4	867	209.235169429637	60
4	883	213.711210140105	61
4	911	221.397772408241	62
4	923	225.308438999024	63
4	943	229.278072103709	64
4	951	230.987511500798	65
4	959	232.954268102761	66
4	967	234.049963731773	67
4	975	235.295574987999	68
4	983	236.613874493384	69
4	991	238.554492017824	70
5	38	7.190821105027	0
5	90	18.69138800543	1
5	130	25.920317439128	2
5	138	27.872741620972	3
5	166	34.963665406462	4
5	228	53.49868873408	5
5	244	55.788712025777	6
5	252	56.914904454959	7
5	260	58.203175427646	8
5	268	60.006935771639	9
5	286	63.59199119167	10
5	392	91.132899449611	11
5	406	94.646208058498	12
5	414	96.157604317024	13
5	436	101.916889138128	14
5	454	107.07519905455	15
5	498	117.529702166667	16
5	560	132.863601074606	17
5	580	136.841844066413	18
5	594	139.582356926305	19
5	610	142.563201551896	20
5	668	157.390083091364	21
5	710	168.712008676833	22
5	748	179.289308148125	23
5	798	191.725774811031	24
5	806	193.480927588548	25
5	840	201.595515462667	26
5	854	205.634066899902	27
5	868	209.245169429637	28
5	884	213.721210140105	29
5	912	221.407772408241	30

