version 2
run General-0-20231008-01:00:11-9078
attr configname General
attr datetime 20231008-01:00:11
attr experiment General
attr inifile omnetpp.ini
attr iterationvars ""
attr iterationvarsf ""
attr measurement ""
attr network Reliability
attr processid 9078
attr repetition 0
attr replication #0
attr resultdir results
attr runnumber 0
attr seedset 0
param Reliability.node[*].transmissionTime "uniform(1s, 2s)"
param Reliability.node[*].delayTime "uniform(0.01s, 0.2s)"
param Reliability.node[*].processingTime exponential(0.01s)
param Reliability.node[0].lossProbability 0
param Reliability.node[1].lossProbability 0.1
param Reliability.node[2].lossProbability 0.2
param Reliability.node[3].lossProbability 0.3
param Reliability.node[4].lossProbability 0.4
param Reliability.node[5].lossProbability 0.5

vector 0 Reliability.node[0] txVector ETV
vector 1 Reliability.node[1] txVector ETV
vector 2 Reliability.node[3] txVector ETV
vector 3 Reliability.node[4] txVector ETV
vector 4 Reliability.node[2] txVector ETV
vector 5 Reliability.node[5] rxVector ETV
0	1	0.114274565438	0
0	9	1.707119181827	1
0	17	3.144706391804	2
0	23	4.624683563206	3
0	25	6.272855439763	4
0	29	7.641096977125	5
0	37	9.511109122382	6
0	45	11.23174177397	7
0	51	12.496297385385	8
0	57	13.515087183406	9
0	65	15.458835258688	10
0	69	17.428644327288	11
0	75	18.639026888953	12
0	77	20.209223664905	13
0	81	21.647825178298	14
0	87	23.30061549724	15
0	93	24.714984085252	16
0	99	26.38973640751	17
0	105	28.052263275561	18
0	113	30.024208274511	19
0	117	31.063396063474	20
0	125	32.422840532455	21
0	133	34.115312651805	22
0	137	35.198425138443	23
0	143	36.865835514692	24
0	147	38.049026878159	25
0	151	39.213967338744	26
0	159	40.891783878048	27
0	167	42.287882156278	28
0	171	44.13429082239	29
0	179	45.901314525008	30
0	185	47.593846116522	31
0	193	49.237836313042	32
0	199	50.525827316874	33
0	207	51.628690676838	34
0	213	53.2807939512	35
0	221	54.716658870531	36
0	229	56.068970531067	37
0	237	57.684530098532	38
0	239	58.717752484913	39
0	247	60.700327441637	40
0	255	62.556130784639	41
0	257	64.045679726713	42
0	261	65.384664843167	43
0	269	67.178362545633	44
0	273	68.962006793666	45
0	281	70.539235378924	46
0	287	72.290079625865	47
0	295	73.51252284933	48
0	297	74.766879332095	49
0	299	75.82490849456	50
0	307	77.259325123468	51
0	309	79.113938706537	52
0	317	80.85777324888	53
0	323	82.074670229881	54
0	329	83.833048881805	55
0	337	85.664097339455	56
0	345	87.343976794351	57
0	353	88.597918439731	58
0	361	90.328360620262	59
0	365	91.445892477715	60
0	371	92.620801349943	61
0	375	93.82566711151	62
0	381	95.181279846541	63
0	387	97.084999586064	64
0	391	99.046935969572	65
0	399	100.724199276259	66
0	403	102.005929380497	67
0	409	103.518322845995	68
0	417	104.736725694108	69
0	423	106.367173629654	70
0	431	107.985050321631	71
0	435	109.738619926227	72
0	443	111.107204529298	73
0	445	113.087904202826	74
0	453	114.494024690315	75
0	461	115.827169846585	76
0	467	117.780040517757	77
0	469	119.66290051614	78
0	471	120.913523235899	79
0	479	122.590935060364	80
0	481	124.317979324219	81
0	485	125.588307227782	82
0	493	127.064784431673	83
0	497	128.348303280148	84
0	505	129.857645345927	85
0	513	131.117067911505	86
0	519	132.89625988233	87
0	527	134.365758187679	88
0	533	135.401120623882	89
0	537	137.082513135933	90
0	541	138.408197902451	91
0	549	139.595328795333	92
0	553	141.39570725414	93
0	561	143.299751648987	94
0	565	145.031148990691	95
0	573	146.827540465473	96
0	581	147.925009151996	97
0	583	149.084423615905	98
0	587	150.713322055368	99
0	593	152.650068532517	100
0	599	153.95705458506	101
0	605	155.488903767038	102
0	609	157.098081345046	103
0	611	158.552243744098	104
0	613	159.878944630809	105
0	617	161.111688762978	106
0	619	162.634059295599	107
0	625	164.147134162095	108
0	631	165.727285881602	109
0	639	167.708925561822	110
0	645	169.347687316435	111
0	651	171.130921754828	112
0	659	172.376984938123	113
0	667	174.199544384918	114
0	673	175.24555169589	115
0	679	177.231043126277	116
0	683	179.223054370453	117
0	689	180.712563692435	118
0	695	182.629290706787	119
0	701	184.003535289626	120
0	707	185.507468899089	121
0	711	187.245859236765	122
0	717	188.879856932053	123
0	725	190.579431993497	124
0	733	192.251339012367	125
0	735	194.146724897047	126
0	737	196.114519569633	127
0	743	197.661404466332	128
0	747	199.06813780808	129
0	751	200.341146711569	130
0	759	201.589560171898	131
0	765	203.215196789551	132
0	771	205.116679780261	133
0	779	206.62730868308	134
0	785	207.969006796676	135
0	793	209.25170644357	136
0	799	210.809771541815	137
0	803	212.235279177857	138
0	807	213.514347121428	139
0	815	214.613763514283	140
0	823	216.260960166185	141
0	831	217.701626259443	142
0	839	219.143661889788	143
0	845	220.682780121295	144
0	853	222.087205058504	145
0	859	224.01051112202	146
0	867	225.046544944244	147
0	873	226.626651852234	148
0	881	227.772522006725	149
0	885	228.812137529562	150
0	893	230.286805514089	151
0	901	231.591251879773	152
0	905	233.561473683529	153
0	913	235.241822354803	154
0	919	237.132475165026	155
0	925	238.564260091474	156
1	3	0.142870607559	0
1	11	1.739354426047	1
1	19	3.159695111894	2
1	27	6.31435713905	3
1	31	7.689549195816	4
1	39	9.529832334332	5
1	47	11.256624322228	6
1	53	12.515911194776	7
1	59	13.536538572953	8
1	67	15.479423600003	9
1	71	17.440024614172	10
1	79	20.263768633367	11
1	83	21.667905370752	12
1	89	23.317053307256	13
1	95	24.728799643686	14
1	101	26.399873053294	15
1	107	28.083316488569	16
1	115	30.037532376921	17
1	119	31.079952526318	18
1	127	32.441201507775	19
1	135	34.12856605596	20
1	139	35.209838445579	21
1	145	36.884666805112	22
1	149	38.063644187119	23
1	153	39.227114555353	24
1	161	40.924421213807	25
1	169	42.30990454195	26
1	173	44.149598047356	27
1	181	45.924233617696	28
1	187	47.609360076423	29
1	195	49.252672669908	30
1	201	50.53679654442	31
1	209	51.644336781849	32
1	215	53.313043097772	33
1	223	54.732993496708	34
1	231	56.080292368163	35
1	241	58.732425210577	36
1	249	60.710445273956	37
1	259	64.057658021788	38
1	263	65.397199900218	39
1	271	67.195294543328	40
1	275	68.974723474369	41
1	283	70.582614722263	42
1	289	72.302548218553	43
1	301	75.838645192504	44
1	311	79.130451013856	45
1	319	80.878652293216	46
1	325	82.088527106821	47
1	331	83.852963924734	48
1	339	85.680187785582	49
1	347	87.356376029545	50
1	355	88.618310496097	51
1	363	90.345645858689	52
1	367	91.468082471167	53
1	373	92.632604092939	54
1	377	93.863873470994	55
1	383	95.192150932374	56
1	389	97.098454781901	57
1	393	99.05758709822	58
1	401	100.743028081709	59
1	405	102.024615037812	60
1	411	103.534395638881	61
1	419	104.767463308739	62
1	425	106.377306882102	63
1	433	107.995090884844	64
1	437	109.7500921766	65
1	447	113.106325565854	66
1	455	114.504870485233	67
1	463	115.837310312497	68
1	473	120.940152893706	69
1	483	124.329389003063	70
1	487	125.605000256502	71
1	495	127.079563611548	72
1	499	128.359206652589	73
1	507	129.872326410459	74
1	515	131.152992397593	75
1	521	132.927690879334	76
1	529	134.381386439697	77
1	535	135.414372332587	78
1	539	137.094103256101	79
1	543	138.441630301752	80
1	551	139.626295158068	81
1	555	141.417419891089	82
1	563	143.324317251103	83
1	567	145.073131540459	84
1	575	146.847260574384	85
1	585	149.099505810446	86
1	589	150.729252871341	87
1	595	152.661344268255	88
1	601	153.985720989762	89
1	607	155.499940475404	90
1	615	159.898475856192	91
1	621	162.654552717258	92
1	627	164.171878384343	93
1	633	165.740091640864	94
1	641	167.725664996264	95
1	647	169.361089688631	96
1	653	171.151883680438	97
1	661	172.400387697743	98
1	669	174.212192207651	99
1	675	175.290280252949	100
1	681	177.243912217231	101
1	685	179.255266512285	102
1	691	180.723772006398	103
1	697	182.643212319683	104
1	703	184.017048502441	105
1	709	185.525573830561	106
1	713	187.276055081797	107
1	719	188.924266372529	108
1	727	190.59536529918	109
1	739	196.127732972662	110
1	745	197.679435834051	111
1	749	199.11322844359	112
1	753	200.358196204783	113
1	761	201.603558124623	114
1	767	203.229200604866	115
1	773	205.131570864367	116
1	781	206.648586287416	117
1	787	207.979313814406	118
1	795	209.266187323254	119
1	801	210.843434444453	120
1	805	212.247633236522	121
1	809	213.527768868344	122
1	817	214.632936232252	123
1	825	216.282514913472	124
1	833	217.718964959113	125
1	841	219.175489028681	126
1	847	220.70064695245	127
1	855	222.114918591697	128
1	861	224.022432077781	129
1	869	225.065656402325	130
1	875	226.640741027526	131
1	883	227.783140168211	132
1	887	228.824175383384	133
1	895	230.358764615276	134
1	903	231.612154335638	135
1	907	233.572126619485	136
1	915	235.257489374401	137
1	921	237.15145918869	138
1	927	238.591504010329	139
2	5	0.160742618959	0
2	21	3.170431965449	1
2	33	7.715689216565	2
2	41	9.568776539112	3
2	55	12.528425614097	4
2	85	21.688492797903	5
2	91	23.328784581817	6
2	97	24.740988449651	7
2	175	44.180893041317	8
2	183	45.941852295409	9
2	197	49.268272280609	10
2	203	50.555733835203	11
2	225	54.744612197575	12
2	233	56.110312233118	13
2	243	58.755228552615	14
2	251	60.749291391477	15
2	303	75.886112138642	16
2	327	82.108905607576	17
2	369	91.486416253573	18
2	395	99.094112683375	19
2	427	106.407134371148	20
2	489	125.621090901055	21
2	509	129.882423764552	22
2	523	132.946307554252	23
2	531	134.393128391301	24
2	545	138.452598276475	25
2	577	146.874451267502	26
2	597	152.675755816362	27
2	603	154.022212872384	28
2	623	162.667455451409	29
2	629	164.181999476794	30
2	643	167.740255275539	31
2	655	171.181121066145	32
2	677	175.323017324616	33
2	729	190.606772750734	34
2	741	196.140726502691	35
2	783	206.661770217577	36
2	835	217.745398491465	37
2	849	220.717632988119	38
2	857	222.125357864038	39
2	877	226.651536729077	40
2	897	230.377860322325	41
2	917	235.27358699613	42
2	929	238.60656665	43
3	7	0.180512683223	0
3	15	1.778226948631	1
3	35	7.740854576305	2
3	43	9.579896000718	3
3	63	13.577994596783	4
3	111	28.14693523028	5
3	123	31.128818653638	6
3	131	32.469300490231	7
3	157	39.25337823246	8
3	165	40.958341493371	9
3	177	44.194650429741	10
3	191	47.639390395665	11
3	205	50.566075869387	12
3	219	53.341799992803	13
3	227	54.754995026704	14
3	235	56.128731042735	15
3	245	58.769777671063	16
3	253	60.761174341229	17
3	267	65.458233311135	18
3	279	69.005503948965	19
3	293	72.37114647969	20
3	305	75.898091815995	21
3	315	79.170684244568	22
3	335	83.89269875209	23
3	343	85.705221371813	24
3	351	87.385083165785	25
3	359	88.658043418009	26
3	397	99.12201257942	27
3	415	103.596790015592	28
3	429	106.457213867697	29
3	441	109.780788595533	30
3	451	113.164024811316	31
3	459	114.541218061989	32
3	477	120.983305669086	33
3	491	125.636925138765	34
3	503	128.409937970637	35
3	511	129.897057664827	36
3	525	132.958220514711	37
3	547	138.483972493379	38
3	559	141.460237424204	39
3	571	145.119631565938	40
3	579	146.933286257405	41
3	637	165.810206058031	42
3	657	171.199210863096	43
3	665	172.429371484754	44
3	723	188.957308624813	45
3	731	190.617826712033	46
3	757	200.388894154569	47
3	777	205.183646048793	48
3	791	208.007538442486	49
3	813	213.563839392138	50
3	821	214.671053119629	51
3	829	216.331777929077	52
3	837	217.757983083952	53
3	851	220.735444676019	54
3	865	224.048829964666	55
3	879	226.685727243019	56
3	891	228.879569279716	57
3	899	230.392612416713	58
3	911	233.599167162114	59
3	931	238.658321086042	60
4	13	1.752537987455	0
4	49	11.269064807135	1
4	61	13.556033518788	2
4	73	17.45938522977	3
4	103	26.428071242487	4
4	109	28.130935761414	5
4	121	31.093779535807	6
4	129	32.458313987147	7
4	141	35.238251270294	8
4	155	39.240518022735	9
4	163	40.936945413736	10
4	189	47.625801123506	11
4	211	51.655859718102	12
4	217	53.330743866367	13
4	265	65.436045343102	14
4	277	68.987833152419	15
4	285	70.59769337349	16
4	291	72.326001692885	17
4	313	79.148142211867	18
4	321	80.890128253545	19
4	333	83.866701557672	20
4	341	85.692614970519	21
4	349	87.372757915601	22
4	357	88.631562656277	23
4	379	93.887616901138	24
4	385	95.215307194957	25
4	407	102.055530603538	26
4	413	103.574217645636	27
4	421	104.796077625169	28
4	439	109.763628142353	29
4	449	113.148725195523	30
4	457	114.529796806875	31
4	465	115.862032354077	32
4	475	120.955609470854	33
4	501	128.381146786295	34
4	517	131.179076576084	35
4	557	141.436099590909	36
4	569	145.09013179682	37
4	591	150.758160162885	38
4	635	165.796494440823	39
4	649	169.38259631456	40
4	663	172.414859096769	41
4	671	174.249883652479	42
4	687	179.276970869585	43
4	693	180.73695255185	44
4	699	182.6559278776	45
4	705	184.045323765119	46
4	715	187.290344200155	47
4	721	188.946573561039	48
4	755	200.371450371955	49
4	763	201.633386250426	50
4	769	203.240305763632	51
4	775	205.151309650282	52
4	789	207.992875472222	53
4	797	209.281395111903	54
4	811	213.548914978374	55
4	819	214.660882963392	56
4	827	216.296579042139	57
4	843	219.195134026299	58
4	863	224.035262802139	59
4	871	225.099502555757	60
4	889	228.857009323728	61
4	909	233.585826411283	62
4	923	237.16247734511	63
5	16	1.788226948631	0
5	132	32.479300490231	1
5	158	39.26337823246	2
5	178	44.204650429741	3
5	192	47.649390395665	4
5	206	50.576075869387	5
5	220	53.351799992803	6
5	228	54.764995026704	7
5	254	60.771174341229	8
5	280	69.015503948965	9
5	294	72.38114647969	10
5	344	85.715221371813	11
5	360	88.668043418009	12
5	398	99.13201257942	13
5	492	125.646925138765	14
5	504	128.419937970637	15
5	560	141.470237424204	16
5	638	165.820206058031	17
5	732	190.627826712033	18
5	758	200.398894154569	19
5	778	205.193646048793	20
5	792	208.017538442486	21
5	822	214.681053119629	22
5	830	216.341777929077	23
5	880	226.695727243019	24
5	892	228.889569279716	25
5	900	230.402612416713	26

