version 2
run General-4-20230921-23:16:21-8796
attr configname General
attr datetime 20230921-23:16:21
attr experiment General
attr inifile omnetpp.ini
attr iterationvars ""
attr iterationvarsf ""
attr measurement ""
attr network Network2
attr processid 8796
attr repetition 4
attr replication #4
attr resultdir results
attr runnumber 4
attr seedset 4
param Network2.node[*].transmissionTime "uniform(1s, 2s)"
param Network2.node[*].delayTime "uniform(0.01s, 0.2s)"
param Network2.node[*].processingTime exponential(0.01s)
param Network2.node[*].lossProbability 0.1

vector 0 Network2.node[0] txVector ETV
vector 1 Network2.node[1] txVector ETV
vector 2 Network2.node[3] txVector ETV
vector 3 Network2.node[2] txVector ETV
vector 4 Network2.node[6] txVector ETV
vector 5 Network2.node[4] txVector ETV
vector 6 Network2.node[5] rxVector ETV
0	1	0.193735669288	0
0	11	2.094357123985	1
0	27	3.792777363365	2
0	35	5.749430329926	3
0	37	7.190778863305	4
0	47	8.256488402063	5
0	57	9.29224659029	6
0	65	10.924910568554	7
0	75	12.283676941801	8
0	87	13.466122342894	9
0	93	15.312844614653	10
0	101	16.392823854616	11
0	109	17.457891662527	12
0	123	18.506425802285	13
0	133	20.173353572298	14
0	147	21.792283495577	15
0	151	23.618306365717	16
0	167	25.080635728003	17
0	169	27.053913725461	18
0	179	28.09400484703	19
0	185	29.53534555078	20
0	195	31.466759818294	21
0	207	33.364851595987	22
0	217	34.453624456576	23
0	227	36.294090522141	24
0	229	38.021819193535	25
0	237	39.711604487537	26
0	249	40.86349009016	27
0	257	42.487643332839	28
0	273	44.234891775915	29
0	283	45.697741534015	30
0	293	46.723143235467	31
0	301	48.250657640783	32
0	309	49.987157910516	33
0	319	51.099032226869	34
0	329	52.161599132617	35
0	339	53.294441139244	36
0	355	54.878716789105	37
0	365	56.743811245228	38
0	375	58.411265774316	39
0	383	59.820701362251	40
0	395	61.027664386353	41
0	403	62.347089577385	42
0	413	63.709071694094	43
0	433	65.109343392927	44
0	445	66.266436860351	45
0	459	68.010406349706	46
0	463	69.3507725116	47
0	475	71.047823950569	48
0	485	72.498631684729	49
0	495	74.123772875327	50
0	523	75.430718089142	51
0	533	76.965822358769	52
0	543	78.90691987324	53
0	545	80.028557513994	54
0	557	81.136441737101	55
0	565	82.817130772085	56
0	573	84.729430494518	57
0	579	86.494086972824	58
0	613	88.457836414608	59
0	623	89.488793318313	60
0	639	90.919339827182	61
0	649	92.141590553023	62
0	673	93.160609431718	63
0	681	95.141469066883	64
0	685	96.780333541021	65
0	689	98.686895373663	66
0	691	100.379727718806	67
0	695	102.152043061018	68
0	703	103.566760806752	69
0	705	104.810140113731	70
0	717	106.585064750782	71
0	729	108.375546874164	72
0	741	109.931077155901	73
0	747	111.545170501724	74
0	765	112.907719695393	75
0	775	114.883389490575	76
0	785	116.745860612171	77
0	787	117.786058458884	78
0	797	118.863617627102	79
0	801	120.159688487568	80
0	811	122.132735005266	81
0	819	123.810817518423	82
0	825	125.608665953309	83
0	829	126.657315441093	84
0	841	128.35694982243	85
0	853	130.219946974807	86
0	861	131.592594845372	87
0	869	132.819457125769	88
0	879	133.941370720661	89
0	887	135.522538906115	90
0	897	137.194986096037	91
0	911	138.420221386164	92
0	919	139.753489859787	93
0	921	141.458901231795	94
0	941	143.058543709026	95
0	951	144.122710294475	96
0	961	145.542613416364	97
0	969	146.818524733571	98
0	981	148.095181778691	99
0	987	149.860434800538	100
0	997	151.426627977204	101
0	1009	153.371065868449	102
0	1019	155.286064338323	103
0	1027	157.132008665392	104
0	1041	158.24717742569	105
0	1043	159.832670935115	106
0	1049	161.105477949755	107
0	1057	162.767371755244	108
0	1067	163.973141481319	109
0	1075	165.14316551868	110
0	1083	166.464707483688	111
0	1093	167.50330565815	112
0	1099	168.759810533758	113
0	1111	170.482540096307	114
0	1123	172.271586684428	115
0	1133	174.212576469324	116
0	1145	176.101374669849	117
0	1151	177.664302126422	118
0	1161	179.432311386486	119
0	1169	180.887336003744	120
0	1173	182.86704253397	121
0	1183	184.389540903885	122
0	1193	185.872722356031	123
0	1203	187.148439782122	124
0	1221	189.056697067953	125
0	1225	190.880739013114	126
0	1243	192.672460122648	127
0	1251	194.026750052729	128
0	1253	195.507831203667	129
0	1265	196.924782709833	130
0	1275	198.785654102601	131
0	1283	200.376320477258	132
0	1291	202.152366542872	133
0	1295	203.639986155936	134
0	1301	205.546293884664	135
0	1311	207.518158574504	136
0	1317	208.575107012558	137
0	1325	210.000446294815	138
0	1333	211.111151067222	139
0	1349	212.974589098858	140
0	1363	214.843787454449	141
0	1383	216.315504586472	142
0	1393	217.679950395514	143
0	1405	218.935317438476	144
0	1413	220.69762501601	145
0	1425	222.188824430023	146
0	1437	223.518008506772	147
0	1443	225.473109226822	148
0	1445	226.497597018638	149
0	1455	228.213808793956	150
0	1465	229.858337745219	151
0	1475	231.555412904974	152
0	1479	233.365940623833	153
0	1487	235.297099320134	154
0	1495	237.09441437331	155
0	1505	238.359944897154	156
0	1515	239.52477279623	157
1	3	0.205631491707	0
1	13	2.127705988723	1
1	29	3.80850697413	2
1	39	7.202713026896	3
1	49	8.269085993383	4
1	59	9.304770158126	5
1	67	10.935778890791	6
1	77	12.318734123642	7
1	89	13.489343945046	8
1	95	15.323301367058	9
1	103	16.410590767331	10
1	111	17.469054957295	11
1	125	18.518036024445	12
1	135	20.189094178507	13
1	149	21.806552191219	14
1	153	23.629878312618	15
1	171	27.064074727374	16
1	181	28.107185867551	17
1	187	29.572817698058	18
1	197	31.478258537755	19
1	209	33.392536984555	20
1	219	34.467604220888	21
1	231	38.037827074178	22
1	239	39.724109389957	23
1	251	40.882952754451	24
1	259	42.498519634514	25
1	275	44.250422016014	26
1	285	45.709207470947	27
1	295	46.735428708893	28
1	303	48.291439213358	29
1	311	50.005149105459	30
1	321	51.111214090373	31
1	331	52.172462422653	32
1	341	53.304618031278	33
1	357	54.90181810072	34
1	367	56.754519060936	35
1	377	58.442203735628	36
1	385	59.849093288921	37
1	397	61.05075746001	38
1	405	62.362811885545	39
1	415	63.727540138483	40
1	435	65.120649605778	41
1	447	66.283600944784	42
1	461	68.021217053437	43
1	465	69.391798103011	44
1	477	71.058592571426	45
1	487	72.527816716644	46
1	497	74.149403397945	47
1	525	75.473238227921	48
1	535	76.979984373504	49
1	547	80.045847332852	50
1	559	81.154199455076	51
1	567	82.830302477087	52
1	575	84.740367182003	53
1	581	86.522117153825	54
1	615	88.478762844986	55
1	625	89.503690580832	56
1	641	90.940914296577	57
1	651	92.161282814401	58
1	675	93.194554052202	59
1	683	95.160275584186	60
1	687	96.795136585812	61
1	693	100.404614954253	62
1	697	102.173278692346	63
1	707	104.826094514767	64
1	719	106.613166629169	65
1	731	108.387148392437	66
1	743	109.945673735369	67
1	749	111.5593377474	68
1	767	112.932341182474	69
1	777	114.901907935365	70
1	789	117.834223849582	71
1	799	118.884851637938	72
1	803	120.170108727542	73
1	813	122.147491359728	74
1	821	123.824249210076	75
1	827	125.627266588518	76
1	831	126.669299098165	77
1	843	128.367273932418	78
1	855	130.231621197231	79
1	863	131.610230531758	80
1	871	132.837201155404	81
1	881	133.952174750406	82
1	889	135.546408350104	83
1	899	137.206477487605	84
1	913	138.444969393182	85
1	923	141.470385632493	86
1	943	143.069927064255	87
1	953	144.134354185247	88
1	963	145.562452336414	89
1	971	146.840310367491	90
1	983	148.112888869652	91
1	989	149.871210414216	92
1	999	151.441978893397	93
1	1011	153.382363715045	94
1	1021	155.306459546844	95
1	1029	157.149610616021	96
1	1045	159.853604975138	97
1	1051	161.155673766114	98
1	1059	162.778421817533	99
1	1069	163.984171323503	100
1	1077	165.16428238554	101
1	1085	166.475232169762	102
1	1095	167.523180611726	103
1	1101	168.771069228267	104
1	1113	170.493337573935	105
1	1125	172.281720953519	106
1	1135	174.273925855408	107
1	1147	176.114462944576	108
1	1153	177.685318962052	109
1	1163	179.442737084806	110
1	1171	180.906731910445	111
1	1175	182.882893437648	112
1	1185	184.407027535642	113
1	1195	185.903981116225	114
1	1205	187.16061932926	115
1	1223	189.076668945298	116
1	1227	190.901705248144	117
1	1245	192.699178254789	118
1	1255	195.521104881445	119
1	1267	196.938267792628	120
1	1277	198.811474286274	121
1	1285	200.404266382759	122
1	1293	202.162736807979	123
1	1297	203.656643699412	124
1	1303	205.56775622466	125
1	1313	207.530820929474	126
1	1319	208.585724283045	127
1	1327	210.010917042139	128
1	1335	211.129065494196	129
1	1351	212.987011656011	130
1	1365	214.853849187369	131
1	1385	216.352911048113	132
1	1395	217.698162769191	133
1	1407	218.951862498591	134
1	1415	220.713081886922	135
1	1427	222.199534742594	136
1	1439	223.531012711563	137
1	1447	226.512145398918	138
1	1457	228.253288004095	139
1	1467	229.868982219328	140
1	1477	231.575386309757	141
1	1481	233.38073196417	142
1	1489	235.317840037675	143
1	1497	237.109762036494	144
1	1507	238.381731031318	145
1	1517	239.555010386456	146
2	5	0.228177698444	0
2	9	0.294691726298	1
2	31	3.818912906442	2
2	43	7.256358152796	3
2	53	8.300317533262	4
2	61	9.323373917467	5
2	97	15.335753089787	6
2	105	16.430124538456	7
2	119	17.569840915246	8
2	163	23.752338831989	9
2	175	27.107766933699	10
2	189	29.598028815197	11
2	199	31.502650502625	12
2	203	31.546260849914	13
2	213	33.432186625794	14
2	221	34.483092368246	15
2	233	38.06938579676	16
2	265	42.560282994237	17
2	269	42.585936864125	18
2	297	46.752580717194	19
2	305	48.314799442515	20
2	315	50.051829665452	21
2	325	51.136824512072	22
2	335	52.223863060067	23
2	351	53.377763215196	24
2	379	58.465699122173	25
2	387	59.869621599714	26
2	391	59.893397677206	27
2	399	61.068990760482	28
2	409	62.415568774241	29
2	419	63.764674315992	30
2	423	63.808898529534	31
2	467	69.404723207123	32
2	471	69.470877871212	33
2	489	72.546316625338	34
2	515	74.346871490481	35
2	519	74.391691434877	36
2	529	75.527775795793	37
2	577	84.750839922549	38
2	599	86.710598379436	39
2	603	86.737279231592	40
2	617	88.493555626394	41
2	627	89.519102911815	42
2	631	89.552255898759	43
2	635	89.579550923318	44
2	643	90.954312795264	45
2	661	92.263141758017	46
2	665	92.31613070982	47
2	699	102.191838745618	48
2	721	106.623572864644	49
2	725	106.643721870096	50
2	733	108.406815035564	51
2	737	108.471321131523	52
2	745	109.956477243907	53
2	751	111.591719584678	54
2	755	111.639836935486	55
2	759	111.710565285832	56
2	833	126.679960470144	57
2	837	126.701487759255	58
2	849	128.412694697554	59
2	857	130.241768202146	60
2	883	133.981928678958	61
2	893	135.573548844482	62
2	907	137.308459564825	63
2	925	141.487108505331	64
2	929	141.520715926934	65
2	937	141.616346882637	66
2	973	146.866591003242	67
2	977	146.907468125763	68
2	985	148.137399975036	69
2	991	149.912450031531	70
2	1001	151.453047039137	71
2	1013	153.401932821814	72
2	1053	161.187273981216	73
2	1071	164.027052120616	74
2	1087	166.489076957485	75
2	1097	167.54586150616	76
2	1105	168.808396844314	77
2	1115	170.512404996756	78
2	1119	170.547949051822	79
2	1165	179.455982909509	80
2	1197	185.922516617475	81
2	1209	187.187178561295	82
2	1213	187.229602911954	83
2	1217	187.266187091606	84
2	1247	192.711265615992	85
2	1257	195.54020858763	86
2	1261	195.576855641229	87
2	1329	210.02425526378	88
2	1341	211.172981265662	89
2	1345	211.212814977451	90
2	1377	214.963578063317	91
2	1381	215.01297347773	92
2	1389	216.403582347682	93
2	1419	220.745458090732	94
2	1459	228.282865447427	95
2	1469	229.881711840532	96
2	1473	229.920229186161	97
2	1485	233.413519413406	98
2	1491	235.349269178471	99
2	1509	238.406914410774	100
3	7	0.247279696778	0
3	15	2.152819256492	1
3	19	2.222297841536	2
3	23	2.247360067905	3
3	41	7.225932341653	4
3	51	8.286517860397	5
3	69	10.946264550382	6
3	73	10.977762260593	7
3	79	12.332527324827	8
3	83	12.362325530082	9
3	91	13.508399632163	10
3	99	15.352983670102	11
3	107	16.444693748964	12
3	113	17.496961471199	13
3	117	17.543225999099	14
3	129	18.559779275591	15
3	139	20.215162784128	16
3	143	20.236060579082	17
3	157	23.678209542989	18
3	161	23.727942148616	19
3	173	27.087052546028	20
3	191	29.615280802639	21
3	201	31.534813451833	22
3	211	33.41803258613	23
3	223	34.518348073623	24
3	235	38.109745178952	25
3	241	39.737077357104	26
3	245	39.758367669397	27
3	253	40.896553380504	28
3	263	42.528555644406	29
3	267	42.575487701017	30
3	279	44.291640210845	31
3	289	45.73589603941	32
3	313	50.02375842417	33
3	323	51.121652549001	34
3	333	52.212759159293	35
3	337	52.240892204371	36
3	345	53.329941695859	37
3	349	53.36632598816	38
3	359	54.920586874907	39
3	363	54.953750428319	40
3	371	56.777369190127	41
3	389	59.882082723878	42
3	407	62.375992535713	43
3	417	63.753445533694	44
3	421	63.798623785628	45
3	425	63.843062373526	46
3	429	63.868686581052	47
3	437	65.144326263661	48
3	441	65.188252363643	49
3	449	66.295368367086	50
3	453	66.368352615547	51
3	457	66.397432192382	52
3	469	69.460241771388	53
3	479	71.069806720015	54
3	483	71.099174976813	55
3	491	72.564825550903	56
3	501	74.190684341415	57
3	505	74.246559807016	58
3	509	74.3085384759	59
3	513	74.336019026351	60
3	517	74.374706510777	61
3	527	75.505955492964	62
3	539	77.007918971602	63
3	551	80.074963663115	64
3	555	80.119083939549	65
3	561	81.174766238673	66
3	569	82.853676821016	67
3	585	86.578327048728	68
3	589	86.625872254451	69
3	593	86.651190850706	70
3	597	86.688063208836	71
3	601	86.726773220931	72
3	605	86.758828799409	73
3	609	86.809575960758	74
3	619	88.507556852444	75
3	629	89.532538317946	76
3	633	89.568835588273	77
3	645	90.98710378465	78
3	655	92.211474979264	79
3	659	92.250555119343	80
3	663	92.291810025735	81
3	667	92.361551361199	82
3	671	92.405091613331	83
3	679	93.226777760347	84
3	709	104.863220716362	85
3	713	104.908038261711	86
3	723	106.633712799232	87
3	735	108.441793902347	88
3	753	111.629526447193	89
3	757	111.696579798334	90
3	761	111.726989143698	91
3	771	112.979278432137	92
3	781	114.953586244753	93
3	793	117.877572961181	94
3	807	120.237963921694	95
3	815	122.161326778047	96
3	835	126.690766402811	97
3	847	128.401115148545	98
3	859	130.262212081871	99
3	865	131.623424755334	100
3	875	132.875471519454	101
3	891	135.562903658135	102
3	895	135.587193131139	103
3	901	137.237580773944	104
3	905	137.274810565705	105
3	915	138.462431722479	106
3	927	141.500328672234	107
3	931	141.557095957639	108
3	935	141.593277454126	109
3	947	143.090548827321	110
3	957	144.192570178074	111
3	965	145.576164997066	112
3	975	146.883901049759	113
3	993	149.925193961078	114
3	1003	151.466210555087	115
3	1007	151.500783157773	116
3	1015	153.420100511155	117
3	1023	155.318777584394	118
3	1033	157.191301012509	119
3	1037	157.247718075245	120
3	1063	162.815597217222	121
3	1079	165.177587647332	122
3	1089	166.504369509864	123
3	1103	168.783226111518	124
3	1107	168.832726537309	125
3	1117	170.527353858713	126
3	1129	172.334242325133	127
3	1137	174.288705826954	128
3	1141	174.322603910781	129
3	1157	177.746392225634	130
3	1179	182.916464615561	131
3	1189	184.443144929371	132
3	1199	185.934891249872	133
3	1207	187.174039276214	134
3	1211	187.218639349747	135
3	1215	187.246915343239	136
3	1231	190.957500285253	137
3	1235	191.007927135813	138
3	1239	191.056010533402	139
3	1259	195.554742836431	140
3	1263	195.601133927496	141
3	1269	196.957997636542	142
3	1273	196.991410253348	143
3	1279	198.826653643391	144
3	1289	200.455412637449	145
3	1299	203.668520246245	146
3	1307	205.588760314174	147
3	1315	207.551052313	148
3	1321	208.595852327706	149
3	1339	211.157554515045	150
3	1343	211.184305013527	151
3	1355	213.021472186117	152
3	1359	213.049796860058	153
3	1367	214.870080232514	154
3	1371	214.925747521728	155
3	1375	214.951709314558	156
3	1379	214.98787477301	157
3	1387	216.367760966818	158
3	1399	217.737147463244	159
3	1403	217.768568478696	160
3	1409	218.964815516904	161
3	1417	220.731052904242	162
3	1421	220.771557064802	163
3	1429	222.211459975303	164
3	1433	222.238894724709	165
3	1451	226.53694560944	166
3	1461	228.306763615647	167
3	1471	229.899809034797	168
3	1483	233.392326069972	169
3	1501	237.14335564054	170
3	1511	238.427845462747	171
3	1519	239.565210822009	172
4	17	2.171313910045	0
4	21	2.237269800775	1
4	71	10.966413432846	2
4	81	12.347919169554	3
4	115	17.515439416476	4
4	127	18.548118396188	5
4	137	20.204412495876	6
4	141	20.225192092992	7
4	155	23.65412989242	8
4	159	23.71699748431	9
4	183	28.11724930776	10
4	243	39.748065406968	11
4	261	42.51376182145	12
4	277	44.261737097755	13
4	287	45.723856974511	14
4	343	53.318105709613	15
4	347	53.355941228367	16
4	361	54.941530790201	17
4	369	56.764557862493	18
4	427	63.85337772052	19
4	439	65.173179912533	20
4	451	66.354974265411	21
4	455	66.381755257762	22
4	481	71.080023757172	23
4	499	74.175674122927	24
4	503	74.226338568621	25
4	507	74.261350491135	26
4	511	74.32224173827	27
4	537	76.997216805058	28
4	549	80.06432070221	29
4	553	80.087042428942	30
4	583	86.554562741896	31
4	587	86.605604362512	32
4	591	86.64008241252	33
4	595	86.675901543007	34
4	607	86.790673473468	35
4	653	92.174649531751	36
4	657	92.236723182964	37
4	669	92.387617097059	38
4	677	93.210706544272	39
4	711	104.880038174438	40
4	769	112.956534666147	41
4	779	114.924922187786	42
4	783	114.967492644399	43
4	791	117.858175741291	44
4	805	120.182091349026	45
4	817	122.172182490022	46
4	823	123.834982855489	47
4	845	128.380521508543	48
4	873	132.859250125721	49
4	903	137.262799869461	50
4	933	141.573781759671	51
4	945	143.08010716091	52
4	955	144.169998066191	53
4	959	144.210211103302	54
4	1005	151.480659386824	55
4	1031	157.17625528282	56
4	1035	157.226109741464	57
4	1047	159.870679276082	58
4	1061	162.792158705227	59
4	1065	162.837610108924	60
4	1127	172.303272798771	61
4	1139	174.305319158317	62
4	1143	174.333793555744	63
4	1149	176.133762703534	64
4	1155	177.705109650537	65
4	1177	182.905407525993	66
4	1187	184.427493644351	67
4	1229	190.927074436392	68
4	1233	190.992516358346	69
4	1237	191.026330378249	70
4	1271	196.975260861101	71
4	1287	200.424146453613	72
4	1305	205.578083779837	73
4	1337	211.143896519225	74
4	1353	213.001836111187	75
4	1357	213.03678519509	76
4	1361	213.076689176804	77
4	1369	214.882075186252	78
4	1373	214.93706510013	79
4	1397	217.720531691832	80
4	1401	217.751834377541	81
4	1431	222.225506200512	82
4	1441	223.542959562813	83
4	1449	226.524895859752	84
4	1499	237.123105354531	85
5	25	2.260458987305	0
5	33	3.849033673908	1
5	45	7.273733243052	2
5	55	8.320810187863	3
5	63	9.34035617926	4
5	85	12.376347851059	5
5	121	17.59035174756	6
5	131	18.573644958131	7
5	145	20.253045153086	8
5	165	23.764951140759	9
5	177	27.140467324283	10
5	193	29.638026619618	11
5	205	31.559535228775	12
5	215	33.501724414048	13
5	225	34.544827207994	14
5	247	39.783948109773	15
5	255	40.92397284589	16
5	271	42.615507039692	17
5	281	44.309921938709	18
5	291	45.753854598729	19
5	299	46.764571003261	20
5	307	48.335584428856	21
5	317	50.064467435691	22
5	327	51.151169454833	23
5	353	53.390361211703	24
5	373	56.790446891366	25
5	381	58.477807937562	26
5	393	59.931612505042	27
5	401	61.081161271468	28
5	411	62.426751778611	29
5	431	63.884400768177	30
5	443	65.222167562913	31
5	473	69.488227185869	32
5	493	72.578721385059	33
5	521	74.405602930739	34
5	531	75.547128155368	35
5	541	77.018121627072	36
5	563	81.188159652797	37
5	571	82.866645198557	38
5	611	86.832169948005	39
5	621	88.51999596571	40
5	637	89.595671374415	41
5	647	91.002079228045	42
5	701	102.228221330743	43
5	715	104.929646732334	44
5	727	106.658623909938	45
5	739	108.490474324782	46
5	763	111.753822377775	47
5	773	112.989492440359	48
5	795	117.896987025428	49
5	809	120.257009302034	50
5	839	126.71163348823	51
5	851	128.446522101508	52
5	867	131.643909317148	53
5	877	132.89176359543	54
5	885	134.011890191319	55
5	909	137.322549762163	56
5	917	138.48515199443	57
5	939	141.62788975181	58
5	949	143.102023516453	59
5	967	145.5941876854	60
5	979	146.94130327422	61
5	995	149.939729428627	62
5	1017	153.43203725926	63
5	1025	155.334145590974	64
5	1039	157.259972391477	65
5	1055	161.211117468722	66
5	1073	164.039841552517	67
5	1081	165.204815134341	68
5	1091	166.517962460754	69
5	1109	168.850675403099	70
5	1121	170.568405216102	71
5	1131	172.356441126555	72
5	1159	177.762962104876	73
5	1167	179.468616669606	74
5	1181	182.926482194126	75
5	1191	184.463691119963	76
5	1201	185.957389594758	77
5	1219	187.287762074588	78
5	1241	191.074585863141	79
5	1249	192.731090976092	80
5	1281	198.839563078661	81
5	1309	205.634544624563	82
5	1323	208.607854202084	83
5	1331	210.059989607323	84
5	1347	211.236741647652	85
5	1391	216.416066147048	86
5	1411	218.984179472701	87
5	1423	220.789475993003	88
5	1435	222.277156013647	89
5	1453	226.550351709845	90
5	1463	228.328083097364	91
5	1493	235.359935170598	92
5	1503	237.18220945938	93
5	1513	238.445759398893	94
5	1521	239.589949037884	95
6	26	2.270458987305	0
6	34	3.859033673908	1
6	46	7.283733243052	2
6	56	8.330810187863	3
6	64	9.35035617926	4
6	86	12.386347851059	5
6	122	17.60035174756	6
6	132	18.583644958131	7
6	146	20.263045153086	8
6	178	27.150467324283	9
6	194	29.648026619618	10
6	206	31.569535228775	11
6	216	33.511724414048	12
6	256	40.93397284589	13
6	272	42.625507039692	14
6	282	44.319921938709	15
6	292	45.763854598729	16
6	300	46.774571003261	17
6	308	48.345584428856	18
6	318	50.074467435691	19
6	328	51.161169454833	20
6	354	53.400361211703	21
6	374	56.800446891366	22
6	382	58.487807937562	23
6	402	61.091161271468	24
6	412	62.436751778611	25
6	444	65.232167562913	26
6	474	69.498227185869	27
6	494	72.588721385059	28
6	532	75.557128155368	29
6	542	77.028121627072	30
6	564	81.198159652797	31
6	572	82.876645198557	32
6	622	88.52999596571	33
6	638	89.605671374415	34
6	648	91.012079228045	35
6	702	102.238221330743	36
6	716	104.939646732334	37
6	728	106.668623909938	38
6	740	108.500474324782	39
6	764	111.763822377775	40
6	774	112.999492440359	41
6	796	117.906987025428	42
6	810	120.267009302034	43
6	840	126.72163348823	44
6	852	128.456522101508	45
6	868	131.653909317148	46
6	878	132.90176359543	47
6	886	134.021890191319	48
6	910	137.332549762163	49
6	918	138.49515199443	50
6	940	141.63788975181	51
6	968	145.6041876854	52
6	980	146.95130327422	53
6	996	149.949729428627	54
6	1026	155.344145590974	55
6	1040	157.269972391477	56
6	1074	164.049841552517	57
6	1082	165.214815134341	58
6	1092	166.527962460754	59
6	1110	168.860675403099	60
6	1122	170.578405216102	61
6	1132	172.366441126555	62
6	1160	177.772962104876	63
6	1168	179.478616669606	64
6	1182	182.936482194126	65
6	1202	185.967389594758	66
6	1220	187.297762074588	67
6	1242	191.084585863141	68
6	1250	192.741090976092	69
6	1282	198.849563078661	70
6	1310	205.644544624563	71
6	1324	208.617854202084	72
6	1332	210.069989607323	73
6	1348	211.246741647652	74
6	1392	216.426066147048	75
6	1412	218.994179472701	76
6	1436	222.287156013647	77
6	1454	226.560351709845	78
6	1464	228.338083097364	79
6	1494	235.369935170598	80
6	1504	237.19220945938	81
6	1514	238.455759398893	82
6	1522	239.599949037884	83

