version 2
run General-2-20230921-23:16:21-8796
attr configname General
attr datetime 20230921-23:16:21
attr experiment General
attr inifile omnetpp.ini
attr iterationvars ""
attr iterationvarsf ""
attr measurement ""
attr network Network2
attr processid 8796
attr repetition 2
attr replication #2
attr resultdir results
attr runnumber 2
attr seedset 2
param Network2.node[*].transmissionTime "uniform(1s, 2s)"
param Network2.node[*].delayTime "uniform(0.01s, 0.2s)"
param Network2.node[*].processingTime exponential(0.01s)
param Network2.node[*].lossProbability 0.1

vector 0 Network2.node[0] txVector ETV
vector 1 Network2.node[1] txVector ETV
vector 2 Network2.node[6] txVector ETV
vector 3 Network2.node[2] txVector ETV
vector 4 Network2.node[4] txVector ETV
vector 5 Network2.node[5] rxVector ETV
vector 6 Network2.node[3] txVector ETV
0	1	0.092839031499	0
0	3	1.277921112972	1
0	13	3.20946197656	2
0	27	4.84219970719	3
0	43	6.130068527088	4
0	53	7.635305244029	5
0	73	9.135313608004	6
0	91	10.881945021004	7
0	99	12.399375782135	8
0	115	13.778586348771	9
0	119	15.120497954097	10
0	135	16.76751217993	11
0	145	18.516290058168	12
0	159	20.411435796898	13
0	171	22.110956419511	14
0	181	23.990946770665	15
0	191	25.496358405818	16
0	197	27.295243920079	17
0	199	28.382806429193	18
0	207	29.413395907051	19
0	215	30.771636214825	20
0	231	32.391277676235	21
0	233	34.099248850738	22
0	243	35.876836762783	23
0	251	37.734676280078	24
0	253	38.899543422526	25
0	265	40.726996772941	26
0	275	42.429261013185	27
0	283	44.305822881655	28
0	293	45.881601880555	29
0	303	46.95586268885	30
0	317	48.176743907872	31
0	319	49.563644252968	32
0	321	51.41876392045	33
0	331	52.799556501461	34
0	343	54.045810092725	35
0	351	55.780495401258	36
0	359	57.632167675086	37
0	363	59.285074624252	38
0	375	60.448413894065	39
0	385	62.142566439016	40
0	387	63.765951155238	41
0	389	65.119165051049	42
0	399	66.283943673848	43
0	405	67.68658159908	44
0	413	68.900824477916	45
0	425	70.231481381712	46
0	433	71.609483792699	47
0	447	73.057897253447	48
0	467	74.827731443356	49
0	477	76.214107166297	50
0	487	78.168395801933	51
0	493	79.846817308126	52
0	507	80.879671241643	53
0	515	82.081570744302	54
0	519	83.408964927329	55
0	533	84.868655223653	56
0	539	85.999519695316	57
0	549	87.035304672804	58
0	567	88.938694336705	59
0	575	90.562653885476	60
0	585	92.139363547109	61
0	607	93.880065455588	62
0	617	95.234459735241	63
0	625	96.295958952533	64
0	633	97.748776581392	65
0	637	99.702964839779	66
0	653	100.768675515914	67
0	661	101.781646210953	68
0	669	102.810154784258	69
0	671	103.899204981999	70
0	681	105.81270047512	71
0	695	107.145473554517	72
0	709	108.569679871221	73
0	721	110.015964841722	74
0	733	111.842762322184	75
0	735	113.08572141409	76
0	739	115.039412958101	77
0	749	116.160253707572	78
0	757	117.61972577057	79
0	767	119.177369455129	80
0	783	120.907904488521	81
0	793	122.124525632963	82
0	835	123.88772585571	83
0	843	125.879396985073	84
0	853	127.858646275031	85
0	863	129.362402557882	86
0	873	130.472334756537	87
0	883	132.376088140553	88
0	887	133.636285807958	89
0	897	134.864238605157	90
0	901	135.912168294445	91
0	911	137.017558163984	92
0	921	138.462375029942	93
0	933	139.748437314548	94
0	943	141.210716222899	95
0	949	143.042499802096	96
0	957	144.459526322104	97
0	989	145.869510651121	98
0	991	147.739536429776	99
0	999	149.242557833923	100
0	1007	151.145189752357	101
0	1025	152.16004828389	102
0	1037	153.592251264045	103
0	1047	154.748012244722	104
0	1057	156.083228336901	105
0	1065	157.451534094776	106
0	1075	159.136015424061	107
0	1083	160.582252645887	108
0	1093	161.811495585389	109
0	1101	163.704273785021	110
0	1109	164.801664688879	111
0	1111	166.032301361229	112
0	1123	168.02706953606	113
0	1137	169.74606116421	114
0	1145	171.479513134132	115
0	1151	173.301769839623	116
0	1163	175.196746651805	117
0	1169	176.198955690744	118
0	1179	177.821140936599	119
0	1187	179.656830743444	120
0	1199	180.938004205958	121
0	1205	182.92478008687	122
0	1211	184.188183512794	123
0	1217	185.720359555002	124
0	1231	186.763699400261	125
0	1249	188.487642850283	126
0	1259	189.659499189838	127
0	1267	191.058681405171	128
0	1285	192.597490455977	129
0	1287	194.44466470999	130
0	1301	195.980828609339	131
0	1313	197.060904529666	132
0	1321	199.049476890614	133
0	1331	200.662990290228	134
0	1339	201.863856239965	135
0	1349	203.037892567947	136
0	1359	204.27081527796	137
0	1371	205.892657874873	138
0	1379	207.23321463915	139
0	1387	208.378370267595	140
0	1395	210.185755199776	141
0	1405	211.504247715021	142
0	1419	213.49246837201	143
0	1429	215.349771310132	144
0	1439	217.062774157872	145
0	1441	218.488273365911	146
0	1447	219.518428283999	147
0	1455	220.710692562418	148
0	1473	221.956888968147	149
0	1483	223.025605751456	150
0	1491	224.288162631703	151
0	1503	225.747577489376	152
0	1519	226.772598308301	153
0	1527	228.610433385032	154
0	1535	229.861997335474	155
0	1543	231.827269466384	156
0	1545	233.312931270827	157
0	1547	235.149362959689	158
0	1557	236.766546667576	159
0	1567	238.332832896639	160
0	1575	239.506734950258	161
1	5	1.317434556699	0
1	15	3.236511927501	1
1	29	4.853434876501	2
1	45	6.144960679457	3
1	55	7.667334457078	4
1	75	9.150961812063	5
1	93	10.913527409857	6
1	101	12.409506810196	7
1	117	13.793394049588	8
1	121	15.162162133239	9
1	137	16.793536090687	10
1	147	18.552760535953	11
1	161	20.424256921827	12
1	173	22.136317918695	13
1	183	24.005027876672	14
1	193	25.506675867628	15
1	201	28.397224633479	16
1	209	29.423587583646	17
1	217	30.785067130225	18
1	235	34.124259305885	19
1	245	35.892188971494	20
1	255	38.917302143222	21
1	267	40.743952603493	22
1	277	42.450580165641	23
1	285	44.321251331689	24
1	295	45.895544851583	25
1	305	46.987117297492	26
1	323	51.430727839172	27
1	333	52.825174595136	28
1	345	54.092135581557	29
1	353	55.794814368006	30
1	361	57.648663502531	31
1	365	59.308096470602	32
1	377	60.4716440778	33
1	391	65.15152985891	34
1	401	66.299682568587	35
1	407	67.707957877387	36
1	415	68.912384240112	37
1	427	70.245596741048	38
1	435	71.620432043458	39
1	449	73.083779658875	40
1	469	74.8471754986	41
1	479	76.224132021384	42
1	489	78.182441856021	43
1	495	79.872225659452	44
1	509	80.913429192133	45
1	517	82.124915529191	46
1	521	83.438768237487	47
1	535	84.881062458476	48
1	541	86.016226832975	49
1	551	87.047626559291	50
1	569	88.949215005518	51
1	577	90.572935249908	52
1	587	92.151899591681	53
1	609	93.89219988984	54
1	619	95.260656082543	55
1	627	96.325276065949	56
1	635	97.763239863691	57
1	639	99.716781593515	58
1	655	100.780010683049	59
1	663	101.798770214324	60
1	673	103.915176536201	61
1	683	105.834992700605	62
1	697	107.174058452117	63
1	711	108.582336003274	64
1	723	110.041488779771	65
1	737	113.100786602029	66
1	741	115.051765086769	67
1	751	116.171726677216	68
1	759	117.635559788694	69
1	769	119.187642614021	70
1	785	120.923856751056	71
1	795	122.140256980971	72
1	837	123.903947394128	73
1	845	125.890248264514	74
1	855	127.875601896609	75
1	865	129.378690146921	76
1	875	130.512837851159	77
1	885	132.402660951246	78
1	889	133.652120046015	79
1	899	134.874336274538	80
1	903	135.94151602686	81
1	913	137.032070511175	82
1	923	138.478888265494	83
1	935	139.777988575792	84
1	945	141.224088030779	85
1	951	143.05450813963	86
1	959	144.49154744088	87
1	993	147.750301579942	88
1	1001	149.262621026228	89
1	1009	151.16080580998	90
1	1027	152.175854414637	91
1	1039	153.60399417945	92
1	1049	154.78637210624	93
1	1059	156.113149545523	94
1	1067	157.472044675978	95
1	1077	159.150239970201	96
1	1085	160.595516219644	97
1	1095	161.83183153921	98
1	1103	163.716786148333	99
1	1113	166.050994668584	100
1	1125	168.047782561469	101
1	1139	169.764423570632	102
1	1147	171.512168048903	103
1	1153	173.317284876416	104
1	1165	175.21709205667	105
1	1171	176.210995281661	106
1	1181	177.834010547935	107
1	1189	179.671946572616	108
1	1201	180.954658278784	109
1	1207	182.936121798668	110
1	1213	184.201128478703	111
1	1219	185.732892041226	112
1	1233	186.775088230197	113
1	1251	188.520047736105	114
1	1261	189.671905647566	115
1	1269	191.072828010925	116
1	1289	194.463847201333	117
1	1303	195.996528130784	118
1	1315	197.074456063889	119
1	1323	199.060310105693	120
1	1333	200.677169491284	121
1	1341	201.876014319702	122
1	1351	203.093964569937	123
1	1361	204.289152689986	124
1	1373	205.914537996812	125
1	1381	207.248249391061	126
1	1389	208.39403544073	127
1	1397	210.204483386562	128
1	1407	211.52020882925	129
1	1421	213.504558124077	130
1	1431	215.368338714415	131
1	1443	218.500495367514	132
1	1449	219.528693254913	133
1	1457	220.722991802479	134
1	1475	221.967526790869	135
1	1485	223.039235795497	136
1	1493	224.311279434613	137
1	1505	225.760052887081	138
1	1521	226.789797331749	139
1	1529	228.643514954903	140
1	1537	229.877630928922	141
1	1549	235.18315419478	142
1	1559	236.813128563285	143
1	1569	238.368344354863	144
1	1577	239.527114674894	145
2	7	1.332888171871	0
2	31	4.870252790877	1
2	35	4.907403051052	2
2	47	6.201902876132	3
2	59	7.696700393556	4
2	63	7.728735107617	5
2	71	7.808119452436	6
2	77	9.211878113614	7
2	81	9.248078451403	8
2	85	9.280189035835	9
2	95	10.932052180646	10
2	105	12.452963218792	11
2	109	12.498404436945	12
2	127	15.226546327958	13
2	139	16.806031452579	14
2	149	18.570529987976	15
2	153	18.600708375543	16
2	169	20.468580595178	17
2	175	22.152693337966	18
2	203	28.43137719132	19
2	225	30.913950246877	20
2	237	34.153128494675	21
2	259	38.956454983364	22
2	307	47.00960028214	23
2	349	54.124620231551	24
2	369	59.34203400094	25
2	379	60.482065284832	26
2	417	68.943690350741	27
2	431	70.293477978928	28
2	437	71.638570742609	29
2	451	73.103046626686	30
2	455	73.133481010704	31
2	459	73.160678428072	32
2	471	74.861010465122	33
2	475	74.907592015172	34
2	497	79.892141446677	35
2	501	79.936614422857	36
2	523	83.45027371675	37
2	527	83.481500862999	38
2	579	90.593944191848	39
2	591	92.183993355044	40
2	595	92.221714574915	41
2	599	92.254363426408	42
2	611	93.902830925503	43
2	643	99.743553183283	44
2	675	103.93099265571	45
2	685	105.848505381538	46
2	689	105.932611674016	47
2	701	107.202595549517	48
2	717	108.642787106966	49
2	725	110.078043891646	50
2	773	119.229239149873	51
2	777	119.263489544003	52
2	809	122.275799132865	53
2	813	122.316889639525	54
2	817	122.356635286203	55
2	821	122.386156616894	56
2	829	122.475465465172	57
2	847	125.907794318338	58
2	857	127.887811513165	59
2	867	129.390876068952	60
2	877	130.549866279444	61
2	905	135.957851003695	62
2	925	138.495508435387	63
2	967	144.56227752433	64
2	971	144.610844306118	65
2	975	144.669206165354	66
2	979	144.721742134161	67
2	983	144.743285098861	68
2	1011	151.220827383543	69
2	1015	151.24881544913	70
2	1019	151.290792303585	71
2	1051	154.802557827378	72
2	1069	157.497378235031	73
2	1079	159.165061182519	74
2	1127	168.074230243546	75
2	1131	168.13985520508	76
2	1157	173.348810516131	77
2	1167	175.233469023977	78
2	1215	184.215062877456	79
2	1221	185.746466842959	80
2	1225	185.783303140208	81
2	1235	186.798236783978	82
2	1239	186.842120540838	83
2	1243	186.89399616519	84
2	1253	188.539002948796	85
2	1273	191.109861629857	86
2	1277	191.158942546855	87
2	1295	194.529379424842	88
2	1353	203.106762610441	89
2	1363	204.310081226246	90
2	1383	207.296468588737	91
2	1423	213.51667596296	92
2	1459	220.744836634337	93
2	1463	220.80506364246	94
2	1495	224.334775396608	95
2	1499	224.392660013787	96
2	1513	225.8562554189	97
2	1531	228.668882656527	98
2	1551	235.237756630476	99
2	1555	235.269203301865	100
3	9	1.344565575783	0
3	19	3.266795492546	1
3	23	3.313441194707	2
3	33	4.882814780011	3
3	37	4.921708208037	4
3	49	6.213673811836	5
3	57	7.681122165219	6
3	61	7.71106492739	7
3	65	7.754739908599	8
3	69	7.792906061327	9
3	79	9.228870012624	10
3	83	9.264637384544	11
3	87	9.294599299859	12
3	97	10.959891099642	13
3	103	12.42190123228	14
3	107	12.473816291397	15
3	111	12.513764261705	16
3	125	15.205714567787	17
3	129	15.244142284607	18
3	141	16.83249304941	19
3	151	18.580938324954	20
3	155	18.628899510444	21
3	163	20.435428814338	22
3	167	20.456506828334	23
3	177	22.183073157577	24
3	187	24.044899387468	25
3	205	28.442056379414	26
3	219	30.843330598321	27
3	223	30.88991865095	28
3	227	30.924383802962	29
3	239	34.167161275347	30
3	247	35.905666742738	31
3	257	38.945753599099	32
3	261	38.992478596371	33
3	269	40.787414201159	34
3	289	44.357995790625	35
3	297	45.918663409155	36
3	309	47.020012875822	37
3	313	47.044239405084	38
3	327	51.455749194347	39
3	337	52.869484853575	40
3	347	54.104353265223	41
3	355	55.817308309192	42
3	367	59.327485161645	43
3	371	59.397008012323	44
3	381	60.511188495973	45
3	393	65.164226803378	46
3	419	68.953992693059	47
3	429	70.275840099929	48
3	439	71.668617448847	49
3	443	71.706669973912	50
3	453	73.119286800314	51
3	457	73.147389660544	52
3	461	73.188313365269	53
3	473	74.897573170851	54
3	483	76.253305332372	55
3	499	79.903196363836	56
3	503	79.949410836437	57
3	513	80.965381150397	58
3	525	83.46792536994	59
3	529	83.506106766306	60
3	545	86.050629622807	61
3	555	87.081864998589	62
3	559	87.111245050593	63
3	563	87.138250936356	64
3	581	90.60498169899	65
3	589	92.172208991473	66
3	593	92.202134504298	67
3	597	92.239619727125	68
3	601	92.275736729461	69
3	613	93.929434747047	70
3	641	99.727841717294	71
3	645	99.770054048749	72
3	649	99.822015418999	73
3	657	100.802621352002	74
3	677	103.941516722736	75
3	687	105.88417569926	76
3	691	105.947646566564	77
3	699	107.191844807777	78
3	703	107.225136120991	79
3	707	107.276529718261	80
3	715	108.616046398808	81
3	719	108.661140266433	82
3	727	110.091411967719	83
3	743	115.069769865632	84
3	761	117.655365745473	85
3	771	119.199269308144	86
3	775	119.243684249187	87
3	779	119.27646818582	88
3	789	120.959738412268	89
3	799	122.165393821472	90
3	803	122.213732434935	91
3	807	122.248872049097	92
3	811	122.298218187391	93
3	815	122.337860306282	94
3	819	122.374706973782	95
3	823	122.429755109447	96
3	827	122.459067443276	97
3	831	122.4893815783	98
3	849	125.927577076326	99
3	859	127.898202594457	100
3	869	129.408516372886	101
3	879	130.571634397348	102
3	893	133.680539322073	103
3	907	136.003347398072	104
3	915	137.06008197475	105
3	927	138.507940829041	106
3	939	139.815153183223	107
3	947	141.241023463134	108
3	961	144.515287058063	109
3	965	144.549688804147	110
3	969	144.583096872055	111
3	973	144.645753311686	112
3	977	144.680241749013	113
3	981	144.732802334253	114
3	985	144.762946567406	115
3	1003	149.296751098531	116
3	1013	151.23663293282	117
3	1017	151.265136960982	118
3	1021	151.306765986303	119
3	1029	152.193292558647	120
3	1033	152.223057353248	121
3	1043	153.63067108127	122
3	1053	154.821075406312	123
3	1071	157.51016456331	124
3	1081	159.183962344291	125
3	1087	160.61177935912	126
3	1115	166.083243095061	127
3	1119	166.110385405096	128
3	1129	168.129126727047	129
3	1133	168.159594942616	130
3	1155	173.33092407384	131
3	1159	173.359968594106	132
3	1173	176.226968906334	133
3	1193	179.700747907199	134
3	1197	179.75424048787	135
3	1209	182.957310242099	136
3	1223	185.76313202631	137
3	1227	185.819409158468	138
3	1237	186.829599934944	139
3	1241	186.883722289698	140
3	1245	186.914890377671	141
3	1255	188.584770419764	142
3	1271	191.098189703357	143
3	1275	191.138983756924	144
3	1279	191.175109131376	145
3	1293	194.500261596871	146
3	1297	194.541649509436	147
3	1305	196.00793434341	148
3	1309	196.035465954658	149
3	1317	197.088521027427	150
3	1325	199.072524381746	151
3	1345	201.916526135182	152
3	1355	203.128169194687	153
3	1365	204.361102157203	154
3	1375	205.970991389859	155
3	1385	207.308433048468	156
3	1391	208.415538968005	157
3	1401	210.228758492479	158
3	1411	211.549314799733	159
3	1415	211.571491717501	160
3	1425	213.546538251748	161
3	1435	215.410412788555	162
3	1445	218.525639826693	163
3	1461	220.793739225271	164
3	1465	220.816919244474	165
3	1469	220.84595856301	166
3	1477	221.998206770943	167
3	1497	224.370509873184	168
3	1501	224.4064333356	169
3	1507	225.774926447562	170
3	1511	225.825172604232	171
3	1515	225.870432064946	172
3	1523	226.83584044158	173
3	1533	228.679305449668	174
3	1539	229.891834009229	175
3	1553	235.253251676713	176
3	1561	236.825185695132	177
3	1571	238.384459833682	178
3	1579	239.548306853897	179
4	11	1.358127393257	0
4	25	3.330478142599	1
4	41	4.954582318787	2
4	51	6.24279824866	3
4	89	9.345435388973	4
4	113	12.531771093532	5
4	133	15.285672175508	6
4	143	16.846743167154	7
4	157	18.642775545012	8
4	179	22.23773568377	9
4	189	24.055427997854	10
4	213	29.448946345966	11
4	229	30.936436713264	12
4	241	34.188466632249	13
4	249	35.928245651715	14
4	263	39.017163926441	15
4	273	40.811708925588	16
4	281	42.509907961246	17
4	291	44.376415523693	18
4	301	45.959216891195	19
4	329	51.476278669813	20
4	341	52.910103746043	21
4	357	55.827930336136	22
4	373	59.411563286552	23
4	383	60.521375530143	24
4	397	65.192682882653	25
4	411	67.741142072045	26
4	423	69.031775885324	27
4	445	71.717319643089	28
4	465	73.231453824214	29
4	485	76.273282167885	30
4	505	79.961577411852	31
4	531	83.51919164956	32
4	547	86.064207136128	33
4	565	87.17227829623	34
4	573	89.032723675965	35
4	583	90.692493722943	36
4	605	92.323178802976	37
4	615	93.97588054865	38
4	623	95.293863311514	39
4	631	96.357038329497	40
4	651	99.872233079881	41
4	659	100.821277374817	42
4	667	101.831549137941	43
4	679	103.95606843359	44
4	693	105.957940493992	45
4	731	110.120338379285	46
4	747	115.103354755359	47
4	755	116.221404479306	48
4	765	117.68050026175	49
4	781	119.290047183763	50
4	833	122.515928264411	51
4	841	123.958807578095	52
4	851	125.938776758222	53
4	871	129.424355445892	54
4	881	130.587609747269	55
4	895	133.706386686388	56
4	909	136.024684375162	57
4	919	137.087524387844	58
4	931	138.577904784483	59
4	941	139.826768061446	60
4	955	143.094324956199	61
4	987	144.780978395483	62
4	997	147.782720544716	63
4	1005	149.308740372239	64
4	1023	151.318940845435	65
4	1035	152.256153244381	66
4	1045	153.640874628209	67
4	1055	154.844928090327	68
4	1063	156.145741401008	69
4	1073	157.520940205595	70
4	1091	160.649185773	71
4	1099	161.878855562077	72
4	1107	163.753631607022	73
4	1121	166.123892521774	74
4	1135	168.18307176448	75
4	1143	169.803227242801	76
4	1161	173.371218942463	77
4	1177	176.263086443528	78
4	1185	177.868391039801	79
4	1229	185.835701976112	80
4	1247	186.927295223597	81
4	1257	188.595730687562	82
4	1265	189.705756933532	83
4	1283	191.20002287244	84
4	1299	194.560040259408	85
4	1311	196.073120764747	86
4	1319	197.110219945979	87
4	1329	199.104603762877	88
4	1337	200.707083592097	89
4	1347	201.931432707069	90
4	1357	203.141806962993	91
4	1369	204.384953215025	92
4	1377	205.987050622967	93
4	1393	208.436978682829	94
4	1403	210.242251549095	95
4	1417	211.594374099366	96
4	1427	213.557300670911	97
4	1437	215.432984399938	98
4	1453	219.557314124408	99
4	1471	220.865002328549	100
4	1481	222.049788176132	101
4	1489	223.082943110259	102
4	1525	226.872031943718	103
4	1541	229.907742475523	104
4	1565	236.91436485166	105
4	1573	238.417970755896	106
5	12	1.368127393257	0
5	42	4.964582318787	1
5	52	6.25279824866	2
5	90	9.355435388973	3
5	114	12.541771093532	4
5	134	15.295672175508	5
5	144	16.856743167154	6
5	158	18.652775545012	7
5	190	24.065427997854	8
5	230	30.946436713264	9
5	242	34.198466632249	10
5	264	39.027163926441	11
5	274	40.821708925588	12
5	282	42.519907961246	13
5	292	44.386415523693	14
5	302	45.969216891195	15
5	330	51.486278669813	16
5	342	52.920103746043	17
5	358	55.837930336136	18
5	374	59.421563286552	19
5	384	60.531375530143	20
5	398	65.202682882653	21
5	412	67.751142072045	22
5	424	69.041775885324	23
5	466	73.241453824214	24
5	486	76.283282167885	25
5	532	83.52919164956	26
5	548	86.074207136128	27
5	566	87.18227829623	28
5	574	89.042723675965	29
5	584	90.702493722943	30
5	606	92.333178802976	31
5	616	93.98588054865	32
5	624	95.303863311514	33
5	632	96.367038329497	34
5	652	99.882233079881	35
5	660	100.831277374817	36
5	668	101.841549137941	37
5	680	103.96606843359	38
5	694	105.967940493992	39
5	748	115.113354755359	40
5	756	116.231404479306	41
5	766	117.69050026175	42
5	782	119.300047183763	43
5	834	122.525928264411	44
5	842	123.968807578095	45
5	852	125.948776758222	46
5	872	129.434355445892	47
5	882	130.597609747269	48
5	896	133.716386686388	49
5	910	136.034684375162	50
5	920	137.097524387844	51
5	932	138.587904784483	52
5	942	139.836768061446	53
5	998	147.792720544716	54
5	1006	149.318740372239	55
5	1024	151.328940845435	56
5	1046	153.650874628209	57
5	1056	154.854928090327	58
5	1064	156.155741401008	59
5	1074	157.530940205595	60
5	1092	160.659185773	61
5	1100	161.888855562077	62
5	1108	163.763631607022	63
5	1122	166.133892521774	64
5	1136	168.19307176448	65
5	1144	169.813227242801	66
5	1162	173.381218942463	67
5	1178	176.273086443528	68
5	1186	177.878391039801	69
5	1230	185.845701976112	70
5	1248	186.937295223597	71
5	1258	188.605730687562	72
5	1266	189.715756933532	73
5	1284	191.21002287244	74
5	1300	194.570040259408	75
5	1312	196.083120764747	76
5	1320	197.120219945979	77
5	1330	199.114603762877	78
5	1338	200.717083592097	79
5	1348	201.941432707069	80
5	1358	203.151806962993	81
5	1370	204.394953215025	82
5	1378	205.997050622967	83
5	1394	208.446978682829	84
5	1404	210.252251549095	85
5	1418	211.604374099366	86
5	1428	213.567300670911	87
5	1438	215.442984399938	88
5	1454	219.567314124408	89
5	1472	220.875002328549	90
5	1490	223.092943110259	91
5	1542	229.917742475523	92
5	1566	236.92436485166	93
5	1574	238.427970755896	94
6	17	3.247957330242	0
6	21	3.28469664084	1
6	39	4.933961457663	2
6	67	7.765596521532	3
6	123	15.174578209774	4
6	131	15.269193431056	5
6	165	20.445531843685	6
6	185	24.016788884931	7
6	195	25.524569644936	8
6	211	29.435794388445	9
6	221	30.859272937215	10
6	271	40.797460945448	11
6	279	42.471586123195	12
6	287	44.332277730229	13
6	299	45.929104276469	14
6	311	47.032608491038	15
6	315	47.055849033857	16
6	325	51.442745162523	17
6	335	52.841227392447	18
6	339	52.892417633629	19
6	395	65.180452744793	20
6	403	66.332023040463	21
6	409	67.726501519723	22
6	421	68.998139511524	23
6	441	71.692439079378	24
6	463	73.208656402181	25
6	481	76.24186169953	26
6	491	78.194188687126	27
6	511	80.940205380826	28
6	537	84.891251821595	29
6	543	86.034501791224	30
6	553	87.065237413065	31
6	557	87.093538139385	32
6	561	87.125070818594	33
6	571	88.983521324153	34
6	603	92.305264278218	35
6	621	95.276367014016	36
6	629	96.347004919319	37
6	647	99.807255795161	38
6	665	101.817732131822	39
6	705	107.236652973962	40
6	713	108.595611704606	41
6	729	110.107842310831	42
6	745	115.091881930427	43
6	753	116.210491485163	44
6	763	117.668502066804	45
6	787	120.948247859407	46
6	791	120.971034507213	47
6	797	122.153037191431	48
6	801	122.200818087694	49
6	805	122.229937679282	50
6	825	122.445286114218	51
6	839	123.935084783489	52
6	861	127.923420270082	53
6	891	133.667965548368	54
6	917	137.077204869076	55
6	929	138.523461299942	56
6	937	139.801746737021	57
6	953	143.083321031812	58
6	963	144.532069870029	59
6	995	147.760928654738	60
6	1031	152.206096322006	61
6	1041	153.614779198596	62
6	1061	156.130978577641	63
6	1089	160.63294576933	64
6	1097	161.85644575938	65
6	1105	163.729862983671	66
6	1117	166.094525017476	67
6	1141	169.789892821263	68
6	1149	171.532173224952	69
6	1175	176.239952458132	70
6	1183	177.845484773048	71
6	1191	179.690043916883	72
6	1195	179.733570884565	73
6	1203	180.96574048081	74
6	1263	189.689373107645	75
6	1281	191.188665265636	76
6	1291	194.478964843371	77
6	1307	196.020712388448	78
6	1327	199.087160402656	79
6	1335	200.689154975444	80
6	1343	201.90194512832	81
6	1367	204.373344584997	82
6	1399	210.218681358943	83
6	1409	211.534164377453	84
6	1413	211.560289058999	85
6	1433	215.386552878174	86
6	1451	219.545166937393	87
6	1467	220.829791914361	88
6	1479	222.039483145531	89
6	1487	223.058444542792	90
6	1509	225.813859011293	91
6	1517	225.888866711368	92
6	1563	236.888066942428	93

