version 2
run General-1-20230921-23:16:21-8796
attr configname General
attr datetime 20230921-23:16:21
attr experiment General
attr inifile omnetpp.ini
attr iterationvars ""
attr iterationvarsf ""
attr measurement ""
attr network Network2
attr processid 8796
attr repetition 1
attr replication #1
attr resultdir results
attr runnumber 1
attr seedset 1
param Network2.node[*].transmissionTime "uniform(1s, 2s)"
param Network2.node[*].delayTime "uniform(0.01s, 0.2s)"
param Network2.node[*].processingTime exponential(0.01s)
param Network2.node[*].lossProbability 0.1

vector 0 Network2.node[0] txVector ETV
vector 1 Network2.node[1] txVector ETV
vector 2 Network2.node[3] txVector ETV
vector 3 Network2.node[4] txVector ETV
vector 4 Network2.node[5] rxVector ETV
vector 5 Network2.node[6] txVector ETV
vector 6 Network2.node[2] txVector ETV
0	1	0.089234179703	0
0	9	2.086418987836	1
0	23	3.474329728053	2
0	33	4.931534537233	3
0	37	6.826141201078	4
0	45	8.099191178453	5
0	53	9.632356467775	6
0	61	10.666527777796	7
0	71	12.114421302338	8
0	83	13.379967959949	9
0	95	14.794147226147	10
0	103	16.242127409091	11
0	117	17.992939511666	12
0	123	19.656381009964	13
0	141	21.106293143125	14
0	143	22.573685828482	15
0	153	23.84268687817	16
0	155	25.306998385701	17
0	159	26.537361189842	18
0	163	28.2488859467	19
0	165	29.645199234949	20
0	167	30.752564543278	21
0	175	32.26237482147	22
0	183	33.386548138575	23
0	201	35.199543110214	24
0	207	36.815872053036	25
0	217	38.110231524918	26
0	219	40.080251514332	27
0	229	41.927080313794	28
0	247	42.966763815729	29
0	267	44.04102224985	30
0	269	45.728080548699	31
0	279	47.154891392569	32
0	293	49.081242103715	33
0	297	50.216321259158	34
0	307	51.675866539942	35
0	315	53.210243876677	36
0	333	55.115636188656	37
0	339	56.659533425586	38
0	345	57.675406405355	39
0	353	59.542923860138	40
0	365	61.117635368023	41
0	397	62.440316368712	42
0	405	63.959327997526	43
0	423	65.732178428329	44
0	433	66.871458477692	45
0	455	67.880371157664	46
0	463	69.399722977893	47
0	477	71.266331249035	48
0	485	73.036569978229	49
0	495	74.815492220109	50
0	503	76.357051597096	51
0	507	78.166128837623	52
0	511	79.700063170985	53
0	529	81.014209696444	54
0	543	82.522725936378	55
0	551	84.063677744827	56
0	553	86.011226691193	57
0	557	87.232659426871	58
0	567	88.689637334206	59
0	577	90.599274282464	60
0	579	92.279293428761	61
0	593	93.863253217078	62
0	597	95.666416551805	63
0	603	97.320106307397	64
0	613	98.92891939625	65
0	623	100.086649461769	66
0	637	102.086418579918	67
0	649	103.3530572817	68
0	663	104.658628895766	69
0	675	105.667977473819	70
0	687	107.554476957656	71
0	697	109.161571125155	72
0	699	110.560724523039	73
0	707	111.836194710461	74
0	717	113.764318531965	75
0	719	115.475413851327	76
0	721	116.668874422441	77
0	735	117.737305482737	78
0	737	119.065858307415	79
0	747	121.046270141033	80
0	763	122.158169899489	81
0	771	123.832018901016	82
0	779	124.844622664973	83
0	793	125.949291274771	84
0	801	126.960063067851	85
0	809	128.76776147739	86
0	817	129.825208715982	87
0	833	131.202291314843	88
0	841	133.037145361191	89
0	851	135.013188912653	90
0	853	136.201933984299	91
0	865	137.845829627131	92
0	875	139.205962284588	93
0	891	141.110593286463	94
0	903	142.217177160903	95
0	911	143.367108650859	96
0	921	144.628372857468	97
0	925	146.615699027087	98
0	931	148.549601639276	99
0	951	150.330131192347	100
0	959	151.522558745118	101
0	969	152.986791758221	102
0	979	154.391779658739	103
0	993	155.517275743075	104
0	1003	157.435314812586	105
0	1009	159.138814128824	106
0	1013	160.4609436394	107
0	1015	162.283673648844	108
0	1043	164.144885289371	109
0	1045	165.939463647204	110
0	1057	167.446543571894	111
0	1083	169.401325212681	112
0	1093	171.256681629812	113
0	1115	172.706513148389	114
0	1123	174.131162263808	115
0	1139	175.519778690889	116
0	1147	177.347756308393	117
0	1157	178.493221919408	118
0	1159	179.963809800457	119
0	1175	181.950382574584	120
0	1185	183.361929650308	121
0	1187	184.946867407189	122
0	1195	186.854400859802	123
0	1197	188.04259512283	124
0	1205	189.78959995078	125
0	1207	191.43383197778	126
0	1209	192.78448848555	127
0	1211	194.013693518593	128
0	1223	195.44757689478	129
0	1231	196.675994635449	130
0	1235	198.052357849089	131
0	1247	199.818360933225	132
0	1257	201.595829683245	133
0	1263	203.072842679108	134
0	1273	204.341734705149	135
0	1281	205.451117619063	136
0	1291	207.277150866698	137
0	1311	208.67580992601	138
0	1313	210.423191991757	139
0	1325	212.159248451592	140
0	1345	213.412830199005	141
0	1361	214.474671886193	142
0	1369	215.953252101906	143
0	1377	217.461662302383	144
0	1383	219.25291944098	145
0	1393	221.068743274904	146
0	1403	222.498417937321	147
0	1411	223.954976444955	148
0	1419	225.796398601153	149
0	1431	227.773489400403	150
0	1437	229.278585452711	151
0	1445	230.532024492634	152
0	1455	232.107494112461	153
0	1465	233.625848271775	154
0	1477	235.137445562876	155
0	1495	236.268861223835	156
0	1503	237.703348793912	157
0	1517	239.525926944924	158
1	3	0.126198958082	0
1	11	2.107497921294	1
1	25	3.489963180366	2
1	35	4.942423332519	3
1	39	6.83675190726	4
1	47	8.120963744362	5
1	55	9.652138926591	6
1	63	10.700452383961	7
1	73	12.131185641823	8
1	85	13.390480402998	9
1	97	14.826416055007	10
1	105	16.265073607366	11
1	119	18.012660075999	12
1	125	19.67501774628	13
1	145	22.601505459951	14
1	157	25.324096183843	15
1	161	26.548688175378	16
1	169	30.763641901427	17
1	177	32.275648530793	18
1	185	33.399969661978	19
1	203	35.209909744204	20
1	209	36.830347662717	21
1	221	40.092993879877	22
1	231	41.953893754841	23
1	249	42.97776665269	24
1	271	45.751120594377	25
1	281	47.168380041313	26
1	295	49.098287465002	27
1	299	50.258844876182	28
1	309	51.689172112309	29
1	317	53.226403520971	30
1	335	55.127758969976	31
1	341	56.670043317046	32
1	347	57.700831782035	33
1	355	59.562814523042	34
1	367	61.138745925639	35
1	399	62.465051633517	36
1	407	63.981558947016	37
1	425	65.749950339321	38
1	435	66.88849982959	39
1	457	67.905756108503	40
1	465	69.439641573826	41
1	479	71.289488810265	42
1	487	73.053757945638	43
1	497	74.862277696157	44
1	505	76.373179273992	45
1	509	78.184739277109	46
1	513	79.723014496431	47
1	531	81.026591762793	48
1	545	82.564774264586	49
1	555	86.024333769491	50
1	559	87.247142235138	51
1	569	88.702886404449	52
1	581	92.297815349779	53
1	595	93.878401428295	54
1	599	95.676798015285	55
1	605	97.331229166085	56
1	615	98.940997410579	57
1	625	100.105176329784	58
1	639	102.104046840248	59
1	651	103.369680000466	60
1	665	104.677226958617	61
1	677	105.686518716751	62
1	689	107.569814257237	63
1	701	110.57125474708	64
1	709	111.847333834401	65
1	723	116.700048431707	66
1	739	119.090624760678	67
1	749	121.060024563993	68
1	765	122.182873181142	69
1	773	123.853180652457	70
1	781	124.858710038885	71
1	795	125.962127119369	72
1	803	126.974425428019	73
1	811	128.779541857915	74
1	819	129.8354786043	75
1	835	131.218006026972	76
1	843	133.048886914872	77
1	855	136.225970666278	78
1	867	137.856620249479	79
1	877	139.220585086691	80
1	893	141.163074416339	81
1	905	142.235186426536	82
1	913	143.417313415776	83
1	923	144.64163133686	84
1	927	146.645211065711	85
1	933	148.564299690849	86
1	953	150.342378981369	87
1	961	151.533281257518	88
1	971	153.009046023008	89
1	981	154.40318624216	90
1	995	155.52819316424	91
1	1005	157.447300742337	92
1	1011	159.178030101626	93
1	1017	162.299468813116	94
1	1047	165.965157219004	95
1	1059	167.481493730954	96
1	1085	169.433252339219	97
1	1095	171.294149045629	98
1	1117	172.721164059497	99
1	1125	174.148147011227	100
1	1141	175.548519001282	101
1	1149	177.364881918499	102
1	1161	180.003432615838	103
1	1177	181.964207855139	104
1	1189	184.967175844675	105
1	1199	188.056756025811	106
1	1213	194.028513753776	107
1	1225	195.463307303824	108
1	1233	196.739082992813	109
1	1237	198.072889254249	110
1	1249	199.835189794951	111
1	1259	201.611787689136	112
1	1265	203.083590044248	113
1	1275	204.362913911919	114
1	1283	205.463172313041	115
1	1293	207.291948683237	116
1	1315	210.436757396235	117
1	1327	212.172447883388	118
1	1347	213.435704895916	119
1	1363	214.485520353237	120
1	1371	215.984055336365	121
1	1379	217.472098878596	122
1	1385	219.268960440637	123
1	1395	221.081941697714	124
1	1405	222.511834200585	125
1	1413	223.965419004429	126
1	1421	225.834875370195	127
1	1433	227.794806456344	128
1	1439	229.297760591392	129
1	1447	230.554043365314	130
1	1457	232.118319560461	131
1	1467	233.637887204794	132
1	1479	235.14921111758	133
1	1497	236.284555315219	134
1	1505	237.734508482292	135
2	5	0.205690100955	0
2	17	2.15128295499	1
2	41	6.847787160782	2
2	59	9.67819609192	3
2	75	12.142772417607	4
2	79	12.166876283742	5
2	87	13.400944463196	6
2	91	13.428480785346	7
2	127	19.689794932053	8
2	147	22.670735490606	9
2	171	30.781381809949	10
2	179	32.294089781799	11
2	187	33.42642576469	12
2	195	33.491952082707	13
2	205	35.220036098948	14
2	213	36.866239326915	15
2	233	41.967711666525	16
2	251	42.988455186671	17
2	263	43.09739774557	18
2	287	47.218260748452	19
2	327	53.316605773973	20
2	349	57.747245461252	21
2	369	61.153560256625	22
2	373	61.177612897381	23
2	381	61.233635811063	24
2	429	65.77873551132	25
2	437	66.917583113794	26
2	441	66.943143091644	27
2	449	67.004271528255	28
2	471	69.493343049568	29
2	481	71.303254021544	30
2	499	74.874547427953	31
2	523	79.799478903039	32
2	583	92.308097115783	33
2	619	98.992651329822	34
2	647	102.19181957338	35
2	667	104.704353003515	36
2	671	104.750937451766	37
2	681	105.733169296487	38
2	703	110.596334324493	39
2	731	116.824539100573	40
2	757	121.158176657339	41
2	767	122.19310499872	42
2	777	123.89752746177	43
2	797	125.975546428893	44
2	805	127.002979227494	45
2	829	129.932686834108	46
2	837	131.240249544368	47
2	859	136.281113227309	48
2	873	137.903256932616	49
2	887	139.291554660318	50
2	907	142.253118122881	51
2	917	143.462153562231	52
2	929	146.66269373503	53
2	935	148.586380800417	54
2	943	148.659916454487	55
2	947	148.685611125592	56
2	965	151.560561138621	57
2	989	154.509468864542	58
2	999	155.575401134586	59
2	1007	157.465466973461	60
2	1019	162.329097976438	61
2	1035	162.480032442081	62
2	1051	165.991027728758	63
2	1061	167.496718024447	64
2	1073	167.582567637001	65
2	1077	167.607224174405	66
2	1097	171.304629146273	67
2	1101	171.333503654861	68
2	1105	171.392362520686	69
2	1109	171.419469785533	70
2	1119	172.741327314345	71
2	1127	174.166287458894	72
2	1135	174.238796812715	73
2	1151	177.376995790596	74
2	1155	177.4209044612	75
2	1171	180.078119983798	76
2	1181	182.014582903974	77
2	1219	194.082321350812	78
2	1227	195.473752406937	79
2	1269	203.126932053614	80
2	1287	205.488729334082	81
2	1303	207.370976236045	82
2	1307	207.473009400495	83
2	1333	212.237764710906	84
2	1337	212.25980700956	85
2	1341	212.286215717313	86
2	1351	213.466561169675	87
2	1373	216.00450056002	88
2	1389	219.308176267291	89
2	1407	222.528241872414	90
2	1415	223.979803463566	91
2	1425	225.864355824797	92
2	1435	227.811673192095	93
2	1469	233.669407801067	94
2	1473	233.695782923642	95
2	1491	235.258142536294	96
2	1507	237.745820449494	97
2	1511	237.767746864992	98
3	7	0.21665893968	0
3	21	2.184991916675	1
3	31	3.57683505578	2
3	43	6.86892403706	3
3	69	10.756792952779	4
3	81	12.206821240844	5
3	93	13.461852748747	6
3	101	14.855968260531	7
3	115	16.399037334482	8
3	139	19.818604652806	9
3	151	22.72410151137	10
3	173	30.82569876522	11
3	199	33.540765766232	12
3	215	36.904160989767	13
3	245	42.053184999714	14
3	265	43.131237417212	15
3	277	45.861535111793	16
3	305	50.291513978544	17
3	331	53.37541399079	18
3	351	57.758962316413	19
3	421	64.09962021253	20
3	431	65.795658669992	21
3	453	67.027395687753	22
3	461	67.935087907461	23
3	475	69.534950594823	24
3	483	71.323258990625	25
3	493	73.092251611519	26
3	501	74.892445568482	27
3	527	79.835586117282	28
3	541	81.101696176381	29
3	549	82.58917625544	30
3	565	87.306628425686	31
3	591	92.426666008855	32
3	621	99.015811568354	33
3	635	100.217879049378	34
3	661	103.457363060147	35
3	673	104.765578363426	36
3	685	105.757386865509	37
3	695	107.622280017861	38
3	705	110.608254651833	39
3	715	111.899037827696	40
3	733	116.845587399474	41
3	745	119.140996961949	42
3	761	121.179692305731	43
3	769	122.230025365868	44
3	791	124.95987078911	45
3	799	125.988583642459	46
3	807	127.016670201705	47
3	815	128.805135416348	48
3	831	129.943406999789	49
3	839	131.250953432559	50
3	849	133.115379319437	51
3	863	136.308276415786	52
3	889	139.323933532923	53
3	901	141.25253255025	54
3	909	142.275952439439	55
3	919	143.474495490193	56
3	949	148.717069376025	57
3	957	150.36972359089	58
3	967	151.576858090249	59
3	977	153.061877773253	60
3	991	154.527984955583	61
3	1001	155.615128381194	62
3	1055	166.025453619216	63
3	1081	167.6634771816	64
3	1091	169.538646712228	65
3	1113	171.448971674506	66
3	1121	172.761314439842	67
3	1137	174.250558348084	68
3	1145	175.591533171425	69
3	1173	180.102027869904	70
3	1183	182.025720291132	71
3	1221	194.114315418259	72
3	1229	195.483778031471	73
3	1245	198.155155113037	74
3	1255	199.878506390755	75
3	1271	203.14269895547	76
3	1279	204.38449007922	77
3	1289	205.510434563733	78
3	1309	207.508051345684	79
3	1323	210.543777142319	80
3	1343	212.297006407818	81
3	1359	213.55637945264	82
3	1367	214.511035239593	83
3	1391	219.324228711981	84
3	1401	221.130796569575	85
3	1409	222.571647054649	86
3	1417	224.020268200994	87
3	1443	229.331006000993	88
3	1463	232.172285462783	89
3	1475	233.718692714473	90
3	1515	237.825039769694	91
4	8	0.22665893968	0
4	22	2.194991916675	1
4	32	3.58683505578	2
4	44	6.87892403706	3
4	70	10.766792952779	4
4	82	12.216821240844	5
4	94	13.471852748747	6
4	102	14.865968260531	7
4	140	19.828604652806	8
4	152	22.73410151137	9
4	174	30.83569876522	10
4	200	33.550765766232	11
4	216	36.914160989767	12
4	246	42.063184999714	13
4	266	43.141237417212	14
4	278	45.871535111793	15
4	306	50.301513978544	16
4	332	53.38541399079	17
4	352	57.768962316413	18
4	422	64.10962021253	19
4	432	65.805658669992	20
4	476	69.544950594823	21
4	484	71.333258990625	22
4	494	73.102251611519	23
4	502	74.902445568482	24
4	528	79.845586117282	25
4	542	81.111696176381	26
4	550	82.59917625544	27
4	566	87.316628425686	28
4	622	99.025811568354	29
4	636	100.227879049378	30
4	662	103.467363060147	31
4	674	104.775578363426	32
4	686	105.767386865509	33
4	696	107.632280017861	34
4	706	110.618254651833	35
4	734	116.855587399474	36
4	762	121.189692305731	37
4	770	122.240025365868	38
4	792	124.96987078911	39
4	800	125.998583642459	40
4	808	127.026670201705	41
4	816	128.815135416348	42
4	832	129.953406999789	43
4	840	131.260953432559	44
4	850	133.125379319437	45
4	864	136.318276415786	46
4	890	139.333933532923	47
4	902	141.26253255025	48
4	910	142.285952439439	49
4	920	143.484495490193	50
4	950	148.727069376025	51
4	958	150.37972359089	52
4	968	151.586858090249	53
4	978	153.071877773253	54
4	992	154.537984955583	55
4	1002	155.625128381194	56
4	1056	166.035453619216	57
4	1092	169.548646712228	58
4	1114	171.458971674506	59
4	1122	172.771314439842	60
4	1138	174.260558348084	61
4	1174	180.112027869904	62
4	1184	182.035720291132	63
4	1222	194.124315418259	64
4	1246	198.165155113037	65
4	1272	203.15269895547	66
4	1290	205.520434563733	67
4	1324	210.553777142319	68
4	1344	212.307006407818	69
4	1360	213.56637945264	70
4	1402	221.140796569575	71
4	1410	222.581647054649	72
4	1418	224.030268200994	73
4	1444	229.341006000993	74
4	1464	232.182285462783	75
4	1476	233.728692714473	76
4	1516	237.835039769694	77
5	13	2.125237518997	0
5	27	3.515031507856	1
5	51	8.160492093696	2
5	65	10.711724929281	3
5	107	16.286792039025	4
5	111	16.335099541214	5
5	121	18.038122429171	6
5	131	19.733193321724	7
5	135	19.762340866494	8
5	191	33.465741353625	9
5	223	40.112668554734	10
5	227	40.15520731081	11
5	237	41.993652182809	12
5	241	42.027144593179	13
5	255	43.011606490814	14
5	259	43.066077597366	15
5	273	45.790883091591	16
5	283	47.187651295709	17
5	291	47.275678827497	18
5	301	50.26899620525	19
5	311	51.707895189998	20
5	319	53.240654412707	21
5	323	53.293985186952	22
5	357	59.584850386175	23
5	361	59.619085713847	24
5	377	61.211321735382	25
5	385	61.296926859504	26
5	389	61.32796127016	27
5	393	61.386917265256	28
5	401	62.475745477828	29
5	409	63.992013293409	30
5	413	64.029478260514	31
5	417	64.064196298057	32
5	445	66.972849445079	33
5	467	69.459452842524	34
5	489	73.064225310635	35
5	515	79.744813079546	36
5	519	79.774644557939	37
5	533	81.04019961546	38
5	537	81.06140747008	39
5	561	87.267187630189	40
5	573	88.740373122071	41
5	587	92.389571152528	42
5	607	97.371428142179	43
5	611	97.426093552973	44
5	627	100.121903887038	45
5	631	100.177474490876	46
5	643	102.143410623668	47
5	653	103.37995666482	48
5	657	103.423231308968	49
5	691	107.581639238783	50
5	711	111.866357037868	51
5	727	116.78813597039	52
5	741	119.113721472501	53
5	753	121.127834891596	54
5	783	124.879184123388	55
5	787	124.919146554699	56
5	821	129.856704499652	57
5	825	129.891054540865	58
5	845	133.086213616893	59
5	869	137.867198034787	60
5	879	139.236521494408	61
5	883	139.258731462374	62
5	897	141.223040236117	63
5	939	148.61215855242	64
5	973	153.02498246289	65
5	985	154.475993627068	66
5	1023	162.378226966687	67
5	1027	162.406456051234	68
5	1031	162.434207979722	69
5	1039	162.508425894035	70
5	1065	167.523099052831	71
5	1069	167.557465516492	72
5	1087	169.470305169924	73
5	1131	174.208438731661	74
5	1163	180.013444443544	75
5	1167	180.051876724336	76
5	1193	185.000183139762	77
5	1201	188.081234874876	78
5	1215	194.047668969166	79
5	1241	198.096921034544	80
5	1251	199.847719936554	81
5	1261	201.64217506895	82
5	1295	207.302684270347	83
5	1299	207.329418474732	84
5	1319	210.500209180213	85
5	1329	212.195937024082	86
5	1355	213.493170545154	87
5	1397	221.109257925243	88
5	1429	225.898572307201	89
5	1449	230.566897421705	90
5	1453	230.622628028821	91
5	1459	232.138123270934	92
5	1483	235.193419739492	93
5	1487	235.219330678014	94
5	1499	236.303431554272	95
6	15	2.138995710924	0
6	19	2.163891113489	1
6	29	3.559533778729	2
6	49	8.132496656406	3
6	57	9.665684203365	4
6	67	10.721920498832	5
6	77	12.155796706772	6
6	89	13.418178240896	7
6	99	14.841485666577	8
6	109	16.310692751359	9
6	113	16.367722250164	10
6	129	19.723164577204	11
6	133	19.744853039059	12
6	137	19.784686647968	13
6	149	22.687131081605	14
6	181	32.312323028859	15
6	189	33.441992886679	16
6	193	33.481334204218	17
6	197	33.529628544424	18
6	211	36.842620348707	19
6	225	40.14501980178	20
6	235	41.978869547511	21
6	239	42.006081185616	22
6	243	42.038563308498	23
6	253	42.999456791836	24
6	257	43.030200497275	25
6	261	43.080000877658	26
6	275	45.826812479966	27
6	285	47.203666124947	28
6	289	47.261300330243	29
6	303	50.280109893324	30
6	313	51.720659171576	31
6	321	53.254019199033	32
6	325	53.304141738743	33
6	329	53.343075122383	34
6	337	55.147227273033	35
6	343	56.705127335548	36
6	359	59.608714200387	37
6	363	59.641060892304	38
6	371	61.163794670068	39
6	375	61.195855916151	40
6	379	61.223535310458	41
6	383	61.259612822003	42
6	387	61.317795272344	43
6	391	61.357264449706	44
6	395	61.405415006645	45
6	403	62.489941456517	46
6	411	64.018718913071	47
6	415	64.047906210248	48
6	419	64.080642777929	49
6	427	65.762922523954	50
6	439	66.929297875149	51
6	443	66.960396841496	52
6	447	66.992572930972	53
6	451	67.015832752435	54
6	459	67.920747389369	55
6	469	69.470492495228	56
6	473	69.512765311658	57
6	491	73.077795608382	58
6	517	79.761499076505	59
6	521	79.786924940874	60
6	525	79.823348745492	61
6	535	81.050479557679	62
6	539	81.076204230643	63
6	547	82.577755668871	64
6	563	87.282095046643	65
6	571	88.730259677845	66
6	575	88.751189419818	67
6	585	92.361481282032	68
6	589	92.405551099845	69
6	601	95.696434815237	70
6	609	97.403516021303	71
6	617	98.96290486379	72
6	629	100.148649550832	73
6	633	100.204572001322	74
6	641	102.128844776711	75
6	645	102.153869352088	76
6	655	103.393606591223	77
6	659	103.440471841072	78
6	669	104.739170821011	79
6	679	105.72180185096	80
6	683	105.745748066509	81
6	693	107.603741714315	82
6	713	111.879984123617	83
6	725	116.747078228229	84
6	729	116.812723540316	85
6	743	119.129515873644	86
6	751	121.111618807797	87
6	755	121.145256084052	88
6	759	121.169509943423	89
6	775	123.877189068382	90
6	785	124.905942852111	91
6	789	124.945525511014	92
6	813	128.7919512696	93
6	823	129.878418760836	94
6	827	129.910262659233	95
6	847	133.101392151242	96
6	857	136.257293057364	97
6	861	136.294773997687	98
6	871	137.891025934554	99
6	881	139.247938986694	100
6	885	139.277137596631	101
6	895	141.212581416201	102
6	899	141.233759450141	103
6	915	143.446991486943	104
6	937	148.601520203884	105
6	941	148.637070508831	106
6	945	148.67120351005	107
6	955	150.355805919324	108
6	963	151.547523132714	109
6	975	153.04119996838	110
6	983	154.422487071233	111
6	987	154.49288628679	112
6	997	155.557027924993	113
6	1021	162.345596210047	114
6	1025	162.391033266334	115
6	1029	162.417161002999	116
6	1033	162.466547986118	117
6	1037	162.498283968714	118
6	1041	162.520088959873	119
6	1049	165.975810836665	120
6	1053	166.011570194333	121
6	1063	167.507735849476	122
6	1067	167.537800545561	123
6	1071	167.572507380525	124
6	1075	167.596576546968	125
6	1079	167.633741263874	126
6	1089	169.503153117507	127
6	1099	171.320020093505	128
6	1103	171.358633315842	129
6	1107	171.403924354909	130
6	1111	171.432391989569	131
6	1129	174.183506527825	132
6	1133	174.224653308	133
6	1143	175.574630006374	134
6	1153	177.398130970194	135
6	1165	180.03363673122	136
6	1169	180.067463542307	137
6	1179	181.97485554014	138
6	1191	184.989333577457	139
6	1203	188.098693383117	140
6	1217	194.062200482579	141
6	1239	198.082912249	142
6	1243	198.127707657139	143
6	1253	199.862330770691	144
6	1267	203.113490884559	145
6	1277	204.372939820329	146
6	1285	205.475300232935	147
6	1297	207.318210389637	148
6	1301	207.35372466829	149
6	1305	207.431275131403	150
6	1317	210.47444369236	151
6	1321	210.532771957183	152
6	1331	212.208423287443	153
6	1335	212.248752977545	154
6	1339	212.274684678351	155
6	1349	213.452414848824	156
6	1353	213.479435197877	157
6	1357	213.531486109269	158
6	1365	214.497151684468	159
6	1375	216.022179450459	160
6	1381	217.486188547928	161
6	1387	219.288569687718	162
6	1399	221.120142183582	163
6	1423	225.849104454009	164
6	1427	225.877045273776	165
6	1441	229.319607508822	166
6	1451	230.607151992799	167
6	1461	232.154793207743	168
6	1471	233.683208146275	169
6	1481	235.179178164049	170
6	1485	235.20872067322	171
6	1489	235.245079641894	172
6	1493	235.282123206725	173
6	1501	236.33788318596	174
6	1509	237.756391694705	175
6	1513	237.812806057511	176

