version 2
run General-3-20230921-23:16:21-8796
attr configname General
attr datetime 20230921-23:16:21
attr experiment General
attr inifile omnetpp.ini
attr iterationvars ""
attr iterationvarsf ""
attr measurement ""
attr network Network2
attr processid 8796
attr repetition 3
attr replication #3
attr resultdir results
attr runnumber 3
attr seedset 3
param Network2.node[*].transmissionTime "uniform(1s, 2s)"
param Network2.node[*].delayTime "uniform(0.01s, 0.2s)"
param Network2.node[*].processingTime exponential(0.01s)
param Network2.node[*].lossProbability 0.1

vector 0 Network2.node[0] txVector ETV
vector 1 Network2.node[1] txVector ETV
vector 2 Network2.node[2] txVector ETV
vector 3 Network2.node[4] txVector ETV
vector 4 Network2.node[6] txVector ETV
vector 5 Network2.node[3] txVector ETV
vector 6 Network2.node[5] rxVector ETV
0	1	0.114651601831	0
0	9	1.185376482154	1
0	11	2.310961798136	2
0	23	3.518204676756	3
0	25	5.431506129518	4
0	33	7.197332504043	5
0	45	8.63778622665	6
0	53	10.310169905261	7
0	57	12.097308405745	8
0	75	13.322362908465	9
0	77	15.163404068281	10
0	95	16.856037815404	11
0	103	18.158301428961	12
0	107	19.882240565563	13
0	109	21.807973350002	14
0	117	23.085296399029	15
0	119	24.273111224011	16
0	127	26.225212469068	17
0	145	28.044993197848	18
0	151	29.829929897166	19
0	165	31.332460113405	20
0	169	32.47579242785	21
0	177	33.732998805889	22
0	195	35.385221930756	23
0	207	36.449895124021	24
0	219	37.544776457897	25
0	231	39.168180071585	26
0	241	40.865845735952	27
0	251	42.405292237479	28
0	257	44.259522881195	29
0	259	45.281618695542	30
0	273	46.503995015122	31
0	279	47.865078790182	32
0	287	49.077973125804	33
0	299	50.661285034915	34
0	303	51.904263218235	35
0	305	53.178900687791	36
0	313	55.120815051322	37
0	321	56.850974589654	38
0	335	57.985192758332	39
0	337	59.596786594785	40
0	343	60.638817448703	41
0	353	61.709187208045	42
0	361	63.566253639361	43
0	371	64.671995138353	44
0	379	65.724970158724	45
0	393	67.439856826164	46
0	401	68.858079633512	47
0	411	70.620195476408	48
0	419	72.295005412609	49
0	435	73.866141039016	50
0	451	74.868266599788	51
0	459	76.550033341697	52
0	467	78.545819650474	53
0	477	79.94208182611	54
0	487	81.495514661143	55
0	495	83.221682658023	56
0	499	85.219420186546	57
0	511	86.415883152582	58
0	513	88.076230208924	59
0	533	89.246220226468	60
0	547	90.962102200672	61
0	569	92.456431772396	62
0	581	93.983394029619	63
0	583	95.907260751653	64
0	587	96.947054904721	65
0	597	98.00810297306	66
0	605	99.455780384432	67
0	623	101.170154097326	68
0	633	102.962560393218	69
0	645	104.135302190738	70
0	655	105.763616609456	71
0	669	107.280736353783	72
0	681	108.755693199182	73
0	693	110.58937871789	74
0	703	111.692634283401	75
0	707	112.844529122416	76
0	715	114.514551457087	77
0	727	116.277153880172	78
0	739	117.57273985662	79
0	757	119.007821900607	80
0	767	120.452822692995	81
0	779	121.546070274967	82
0	783	122.689162792708	83
0	797	124.512151811342	84
0	807	125.727843997372	85
0	817	127.510189928418	86
0	819	128.554667431699	87
0	835	129.805759967608	88
0	843	131.535259187059	89
0	859	133.272669508658	90
0	877	134.953455879423	91
0	887	136.053722891328	92
0	897	137.215628107847	93
0	923	138.50918605302	94
0	929	140.047064796393	95
0	941	141.249403799721	96
0	949	142.561083629564	97
0	959	143.626879734988	98
0	963	145.261140784551	99
0	971	147.086036716192	100
0	979	148.576332283276	101
0	987	149.915899401135	102
0	989	151.14481374675	103
0	991	153.111465003179	104
0	1003	154.930582687795	105
0	1015	156.551384883538	106
0	1019	158.03677230219	107
0	1033	159.747640985135	108
0	1051	161.489945912572	109
0	1055	163.122682627827	110
0	1069	164.969391769335	111
0	1075	166.738941961738	112
0	1085	168.324316049066	113
0	1099	169.497525413359	114
0	1119	170.889176694282	115
0	1157	172.656615248487	116
0	1165	173.891072996963	117
0	1169	174.913771384001	118
0	1175	176.377965058271	119
0	1179	178.337378708484	120
0	1189	180.249066362461	121
0	1197	182.159784691246	122
0	1223	183.358033105336	123
0	1233	184.767696275679	124
0	1239	186.762571703713	125
0	1241	188.154893808137	126
0	1263	189.377610868845	127
0	1265	190.794804947521	128
0	1281	192.511630984792	129
0	1289	194.492478695768	130
0	1311	195.779595614714	131
0	1325	197.688195327367	132
0	1333	199.243243147922	133
0	1341	200.571466933075	134
0	1357	201.836073052907	135
0	1367	202.871238437552	136
0	1385	204.716053064285	137
0	1393	206.048648602866	138
0	1401	207.769094369911	139
0	1409	209.718018378435	140
0	1411	211.007860436408	141
0	1423	212.375050630724	142
0	1433	213.383124554601	143
0	1441	214.81705439354	144
0	1449	216.020186516062	145
0	1463	217.320964711091	146
0	1473	218.961466196996	147
0	1477	220.038206056065	148
0	1495	221.66733796762	149
0	1505	223.214663613193	150
0	1517	224.589553603275	151
0	1529	226.452660296649	152
0	1537	228.428733070918	153
0	1547	229.790249301425	154
0	1555	231.301251720709	155
0	1563	233.108706035258	156
0	1573	234.543599097363	157
0	1577	236.229845006324	158
0	1589	237.708634208262	159
0	1591	239.365692335021	160
1	3	0.14297423212	0
1	13	2.321490187313	1
1	27	5.477868343434	2
1	35	7.209038818463	3
1	47	8.67109958143	4
1	55	10.332672367812	5
1	59	12.112525921987	6
1	79	15.179308177265	7
1	97	16.882489641241	8
1	105	18.174746687012	9
1	111	21.819909951347	10
1	121	24.294556062289	11
1	129	26.243682092282	12
1	147	28.090783896229	13
1	153	29.841821702216	14
1	167	31.347806634425	15
1	171	32.489030931787	16
1	179	33.774337149521	17
1	197	35.415181737801	18
1	209	36.465102183157	19
1	221	37.616025959584	20
1	233	39.178438665211	21
1	243	40.876850204419	22
1	253	42.450169327258	23
1	261	45.296030846793	24
1	275	46.535542242431	25
1	281	47.880530657747	26
1	289	49.097662466808	27
1	301	50.677814829291	28
1	307	53.192140938864	29
1	315	55.140365092919	30
1	323	56.863558578698	31
1	339	59.612186854747	32
1	345	60.667074960112	33
1	355	61.721080890287	34
1	363	63.588819609888	35
1	373	64.698937977366	36
1	381	65.740321663965	37
1	395	67.486723083471	38
1	403	68.869981860473	39
1	413	70.645842712155	40
1	421	72.31738266361	41
1	437	73.878494547087	42
1	453	74.885020877027	43
1	461	76.560536346193	44
1	469	78.560701689714	45
1	479	79.957518636941	46
1	489	81.513366802414	47
1	497	83.25364446823	48
1	501	85.254736323263	49
1	515	88.095475965061	50
1	535	89.261537021642	51
1	549	90.979610073701	52
1	571	92.470609325128	53
1	585	95.939217838085	54
1	589	96.959012194492	55
1	599	98.025147015351	56
1	607	99.467651041641	57
1	625	101.181495210856	58
1	635	102.987896764304	59
1	647	104.147704073925	60
1	657	105.780968319791	61
1	671	107.310911034261	62
1	683	108.77141024798	63
1	695	110.604945643919	64
1	705	111.704646237052	65
1	709	112.860292276583	66
1	717	114.535329674529	67
1	729	116.290364958958	68
1	741	117.595582620599	69
1	759	119.020684621631	70
1	769	120.471093503766	71
1	781	121.573450354663	72
1	785	122.714340331988	73
1	799	124.528271685803	74
1	809	125.743589308383	75
1	821	128.567383230733	76
1	837	129.81876163236	77
1	845	131.562323208539	78
1	861	133.287063606492	79
1	879	134.967447673315	80
1	889	136.074002938889	81
1	899	137.25186149662	82
1	925	138.551606411248	83
1	931	140.090461384733	84
1	943	141.276533635128	85
1	951	142.582804114974	86
1	961	143.645630655588	87
1	965	145.271327916459	88
1	973	147.107966618033	89
1	981	148.596932328315	90
1	993	153.131285836595	91
1	1005	154.978874810245	92
1	1017	156.564290808797	93
1	1021	158.050393940569	94
1	1035	159.758097975276	95
1	1053	161.525998723146	96
1	1057	163.145266903778	97
1	1071	164.981412851917	98
1	1077	166.753092556874	99
1	1087	168.336976294665	100
1	1101	169.509828463681	101
1	1121	170.90546061313	102
1	1159	172.668734643895	103
1	1167	173.917330558685	104
1	1171	174.929582253925	105
1	1177	176.388063287718	106
1	1181	178.348611721839	107
1	1191	180.266925898742	108
1	1199	182.172330441141	109
1	1225	183.376807062381	110
1	1235	184.793840508198	111
1	1243	188.187576070566	112
1	1267	190.810922578697	113
1	1283	192.521753263966	114
1	1291	194.520668907454	115
1	1313	195.802771756723	116
1	1327	197.725985757599	117
1	1335	199.254882287213	118
1	1343	200.592826427503	119
1	1359	201.847404867618	120
1	1369	202.886017156116	121
1	1387	204.728152763529	122
1	1395	206.062894300408	123
1	1403	207.795460043898	124
1	1413	211.018101655869	125
1	1425	212.428554485202	126
1	1435	213.398244451633	127
1	1443	214.828608148839	128
1	1451	216.046474313276	129
1	1465	217.340601877311	130
1	1475	218.98995603684	131
1	1479	220.070589469524	132
1	1497	221.678140311558	133
1	1507	223.249174627295	134
1	1519	224.608817411949	135
1	1531	226.500547898848	136
1	1539	228.456801202316	137
1	1549	229.802667804576	138
1	1557	231.317841205999	139
1	1565	233.149248970606	140
1	1575	234.57578587246	141
1	1579	236.253116909522	142
1	1593	239.383846649705	143
2	5	0.160124635094	0
2	17	2.359462230931	1
2	39	7.247172886253	2
2	63	12.137936018694	3
2	67	12.198120372343	4
2	71	12.222159141282	5
2	81	15.201607465733	6
2	85	15.239405471129	7
2	89	15.282123687143	8
2	93	15.325508535806	9
2	99	16.895110878863	10
2	123	24.30904475753	11
2	133	26.293461901806	12
2	137	26.346185501708	13
2	141	26.389734747366	14
2	149	28.108627628603	15
2	155	29.867315399037	16
2	159	29.911568885832	17
2	163	29.933618984723	18
2	183	33.802853317881	19
2	187	33.872360700204	20
2	191	33.895940231366	21
2	199	35.442166361542	22
2	203	35.467563637846	23
2	213	36.492578403976	24
2	223	37.643148536372	25
2	227	37.700110990859	26
2	235	39.190871483287	27
2	247	40.909742767557	28
2	255	42.472226129237	29
2	263	45.313303769599	30
2	267	45.346770847818	31
2	271	45.376333184248	32
2	283	47.892561277131	33
2	293	49.142844632588	34
2	297	49.180206121785	35
2	327	56.903138248452	36
2	331	56.924712967757	37
2	349	60.730183490788	38
2	357	61.736294317388	39
2	365	63.613961033688	40
2	375	64.732373347676	41
2	383	65.765882733096	42
2	387	65.805733829486	43
2	397	67.503777007235	44
2	407	68.898686973889	45
2	415	70.664928532661	46
2	425	72.353998101061	47
2	429	72.387630196439	48
2	441	73.908737532702	49
2	445	73.960291606689	50
2	457	74.919801692958	51
2	473	78.592438880323	52
2	483	80.028836912339	53
2	491	81.554476970764	54
2	503	85.28628495729	55
2	507	85.313092854684	56
2	519	88.134858645117	57
2	523	88.174807166812	58
2	527	88.196025684215	59
2	537	89.284248498696	60
2	541	89.321218148864	61
2	545	89.350925953492	62
2	553	91.013632154937	63
2	557	91.062191298188	64
2	561	91.14595613382	65
2	565	91.170361565809	66
2	575	92.505322529156	67
2	591	96.972964771951	68
2	601	98.043041734014	69
2	611	99.513520309973	70
2	615	99.569994225347	71
2	619	99.599115295715	72
2	629	101.229212910723	73
2	639	103.01394566512	74
2	651	104.179184328406	75
2	661	105.814821165536	76
2	665	105.858898033006	77
2	675	107.372846935524	78
2	679	107.406262050675	79
2	685	108.807448439233	80
2	689	108.855348259899	81
2	699	110.640078360605	82
2	721	114.570133976193	83
2	733	116.356262688197	84
2	743	117.616334877233	85
2	747	117.644123430782	86
2	751	117.670642612516	87
2	763	119.057987655852	88
2	771	120.485291136792	89
2	775	120.513823779658	90
2	787	122.745268396426	91
2	791	122.771833675156	92
2	801	124.543482170873	93
2	805	124.579792814799	94
2	813	125.779166285999	95
2	825	128.643758779149	96
2	829	128.692648340952	97
2	839	129.840039370516	98
2	849	131.596916337944	99
2	853	131.629754907627	100
2	863	133.306789631237	101
2	867	133.333245095983	102
2	871	133.361648249569	103
2	883	135.002040972528	104
2	893	136.134487251284	105
2	901	137.267106383169	106
2	905	137.297625087629	107
2	909	137.331618763189	108
2	913	137.352851127793	109
2	917	137.396327945974	110
2	933	140.100554526202	111
2	937	140.13916153972	112
2	955	142.613067518715	113
2	983	148.613209067762	114
2	995	153.151743448798	115
2	999	153.214784427557	116
2	1009	155.047165203508	117
2	1013	155.079512726995	118
2	1025	158.08316989695	119
2	1029	158.106524252539	120
2	1039	159.791164131344	121
2	1043	159.827823967103	122
2	1047	159.875489884217	123
2	1061	163.178868924451	124
2	1065	163.211163313814	125
2	1081	166.793746558503	126
2	1091	168.398647585927	127
2	1095	168.426682661726	128
2	1103	169.532489375648	129
2	1107	169.568766467308	130
2	1111	169.600531742509	131
2	1115	169.688262594005	132
2	1125	170.950339777627	133
2	1129	170.987491970871	134
2	1133	171.019610514383	135
2	1137	171.078470455932	136
2	1141	171.109806915231	137
2	1145	171.207077922255	138
2	1149	171.240863391134	139
2	1153	171.284283110819	140
2	1183	178.36518561663	141
2	1193	180.283025853491	142
2	1203	182.196608412519	143
2	1207	182.226921755015	144
2	1211	182.264861346422	145
2	1215	182.306367487446	146
2	1219	182.337342480544	147
2	1229	183.420557718961	148
2	1245	188.221008438561	149
2	1249	188.245888053431	150
2	1253	188.298831257297	151
2	1257	188.352102166397	152
2	1271	190.835063948101	153
2	1275	190.863028366606	154
2	1279	190.890309611054	155
2	1285	192.545522510346	156
2	1295	194.57346024728	157
2	1299	194.617110011938	158
2	1303	194.659262242196	159
2	1307	194.7189264099	160
2	1317	195.827469276712	161
2	1321	195.861134648893	162
2	1329	197.747557762062	163
2	1337	199.290626703667	164
2	1345	200.606496934325	165
2	1349	200.662331455504	166
2	1353	200.685408664207	167
2	1363	201.88364517178	168
2	1373	202.919203496829	169
2	1377	202.958371815541	170
2	1381	202.983210707079	171
2	1415	211.052824463382	172
2	1419	211.1062553782	173
2	1429	212.485175260548	174
2	1439	213.43905504101	175
2	1445	214.852390090604	176
2	1455	216.07448635666	177
2	1459	216.114871386304	178
2	1469	217.367949325564	179
2	1481	220.086739464245	180
2	1485	220.110464473026	181
2	1489	220.158408981101	182
2	1501	221.704647477824	183
2	1509	223.262746959094	184
2	1513	223.290449304155	185
2	1521	224.629957893382	186
2	1525	224.716208674836	187
2	1535	226.531141610947	188
2	1543	228.494517497356	189
2	1559	231.329160069779	190
2	1569	233.182151431974	191
2	1581	236.267641495474	192
2	1585	236.324217747353	193
2	1595	239.394172669801	194
3	7	0.175870491842	0
3	21	2.39316828784	1
3	31	5.506889538641	2
3	43	7.272290946042	3
3	51	8.697158533678	4
3	73	12.234407825591	5
3	115	21.854913629244	6
3	125	24.322108469446	7
3	143	26.402396458499	8
3	175	32.537594320723	9
3	193	33.918230796108	10
3	205	35.490552044644	11
3	217	36.535486124873	12
3	229	37.713494427432	13
3	239	39.21728242329	14
3	249	40.953351007818	15
3	285	47.908244664454	16
3	311	53.223979215002	17
3	319	55.170701844405	18
3	333	56.949372132625	19
3	351	60.74978969581	20
3	359	61.766464897587	21
3	369	63.656601549853	22
3	377	64.744442986625	23
3	391	65.850979301506	24
3	399	67.521539516046	25
3	417	70.684903868944	26
3	433	72.413840421239	27
3	449	73.998160003378	28
3	465	76.591116455412	29
3	475	78.615098339493	30
3	493	81.569460539494	31
3	509	85.324945332698	32
3	531	88.230461286673	33
3	567	91.181300195163	34
3	579	92.560181002242	35
3	595	97.034040734336	36
3	603	98.062813767328	37
3	621	99.610256517993	38
3	643	103.049890341482	39
3	653	104.193454814905	40
3	667	105.87069498222	41
3	701	110.657589622632	42
3	713	112.922420180688	43
3	725	114.634191083409	44
3	737	116.421903249762	45
3	755	117.701646599987	46
3	765	119.068206050537	47
3	777	120.549510232936	48
3	795	122.826836343568	49
3	815	125.797473934929	50
3	833	128.74783113386	51
3	841	129.853467095354	52
3	857	131.66293820069	53
3	875	133.408500448578	54
3	885	135.021186355388	55
3	895	136.145463091204	56
3	921	137.432963991209	57
3	939	140.165988306777	58
3	947	141.300091035391	59
3	957	142.633688867064	60
3	969	145.305167320906	61
3	977	147.142991874984	62
3	985	148.634754101647	63
3	1001	153.226563819597	64
3	1031	158.13206995182	65
3	1049	159.899579055122	66
3	1117	169.707431804705	67
3	1155	171.302513153813	68
3	1163	172.701460545989	69
3	1187	178.403384507001	70
3	1195	180.297928194611	71
3	1221	182.358198213475	72
3	1231	183.43110242626	73
3	1261	188.410940456358	74
3	1309	194.729579060936	75
3	1323	195.88090261477	76
3	1339	199.336033570809	77
3	1355	200.698321156835	78
3	1365	201.91862347741	79
3	1383	203.019206451668	80
3	1391	204.768222188432	81
3	1399	206.108146414585	82
3	1407	207.848861041767	83
3	1421	211.118178072953	84
3	1431	212.496939764476	85
3	1461	216.12750459719	86
3	1471	217.381010025885	87
3	1493	220.205835855751	88
3	1503	221.725642947703	89
3	1515	223.300981211766	90
3	1527	224.733619323206	91
3	1545	228.504961393941	92
3	1553	229.861397055326	93
3	1561	231.340106089449	94
3	1571	233.196222319174	95
3	1587	236.346290440943	96
3	1597	239.404955085661	97
4	15	2.343358842275	0
4	61	12.12566256341	1
4	65	12.167635356715	2
4	83	15.217720044603	3
4	87	15.267970825412	4
4	91	15.309618050264	5
4	101	16.911697289162	6
4	161	29.922333633005	7
4	189	33.884224400095	8
4	201	35.45388651397	9
4	265	45.329784203135	10
4	269	45.359814754662	11
4	291	49.117305114417	12
4	325	56.88785649232	13
4	341	59.634430521	14
4	347	60.712556482946	15
4	385	65.781288056887	16
4	405	68.88792985111	17
4	423	72.335532815342	18
4	427	72.371654754636	19
4	439	73.890292987947	20
4	443	73.928085739619	21
4	481	79.996633893475	22
4	505	85.298862364679	23
4	517	88.117446094116	24
4	521	88.158945250409	25
4	525	88.18493885825	26
4	543	89.334557003241	27
4	551	90.990539794	28
4	555	91.03151560704	29
4	559	91.08468348455	30
4	563	91.156721528668	31
4	573	92.491879550516	32
4	609	99.500174657045	33
4	617	99.585597065238	34
4	627	101.208813821159	35
4	631	101.242946026935	36
4	637	102.99822952521	37
4	649	104.160841037436	38
4	663	105.842811253389	39
4	677	107.385783469601	40
4	687	108.832378937292	41
4	697	110.626285113744	42
4	719	114.552052579121	43
4	745	117.633026998539	44
4	749	117.659279560165	45
4	761	119.041790208014	46
4	803	124.562785645938	47
4	811	125.759574409587	48
4	823	128.597744420582	49
4	827	128.675914666859	50
4	847	131.579800899532	51
4	851	131.618783991257	52
4	865	133.31836812086	53
4	891	136.117222584488	54
4	903	137.287579801513	55
4	911	137.34204308918	56
4	915	137.367182112456	57
4	927	138.56747103191	58
4	953	142.601005967101	59
4	997	153.196181991995	60
4	1023	158.062552390154	61
4	1027	158.094767304698	62
4	1037	159.772353665569	63
4	1041	159.809711423664	64
4	1063	163.198855583405	65
4	1067	163.228417073073	66
4	1073	165.00212494525	67
4	1079	166.77993825978	68
4	1083	166.804834731261	69
4	1093	168.413073738499	70
4	1105	169.547093132581	71
4	1113	169.64547025662	72
4	1123	170.934160202795	73
4	1127	170.974484282116	74
4	1131	171.000591671635	75
4	1139	171.09037457107	76
4	1143	171.140306298692	77
4	1173	174.94485103072	78
4	1209	182.246194511766	79
4	1213	182.296091800116	80
4	1251	188.266903588477	81
4	1269	190.824639608854	82
4	1273	190.850008622406	83
4	1293	194.560194554914	84
4	1297	194.59505563884	85
4	1305	194.6956406241	86
4	1315	195.814260576728	87
4	1319	195.846199561796	88
4	1331	197.760860917615	89
4	1347	200.639985911885	90
4	1351	200.675050448384	91
4	1361	201.869824448312	92
4	1371	202.903698381304	93
4	1379	202.972350109464	94
4	1417	211.067199016033	95
4	1437	213.422567772927	96
4	1453	216.058015925109	97
4	1457	216.092595477925	98
4	1511	223.279466544683	99
4	1523	224.665377649714	100
4	1541	228.471873573766	101
4	1583	236.306560359982	102
5	19	2.371890299722	0
5	29	5.49323150775	1
5	37	7.234194413394	2
5	41	7.262082646573	3
5	49	8.686191034395	4
5	69	12.211377362242	5
5	113	21.830964715949	6
5	131	26.269806692567	7
5	135	26.326143415574	8
5	139	26.377548452593	9
5	157	29.899110062425	10
5	173	32.509561283606	11
5	181	33.792258667879	12
5	185	33.844969140388	13
5	211	36.478868323166	14
5	215	36.50944339634	15
5	225	37.686738007284	16
5	237	39.2046497832	17
5	245	40.894501683074	18
5	277	46.546252369271	19
5	295	49.168875129781	20
5	309	53.205347843452	21
5	317	55.156152953338	22
5	329	56.913143037754	23
5	367	63.626084099666	24
5	389	65.818370671837	25
5	409	68.924350315063	26
5	431	72.403285220291	27
5	447	73.980113465581	28
5	455	74.909702635714	29
5	463	76.580714884836	30
5	471	78.578186256972	31
5	485	80.042815399498	32
5	529	88.210835521761	33
5	539	89.306698336876	34
5	577	92.518181897546	35
5	593	97.015912412156	36
5	613	99.539895923711	37
5	641	103.030680304465	38
5	659	105.794469942695	39
5	673	107.34421566065	40
5	691	108.874925518289	41
5	711	112.873726232086	42
5	723	114.586900100511	43
5	731	116.309651575685	44
5	735	116.410091015632	45
5	753	117.685360522842	46
5	773	120.498332670661	47
5	789	122.760381195766	48
5	793	122.806240410815	49
5	831	128.731096224044	50
5	855	131.651278710315	51
5	869	133.344494660645	52
5	873	133.382814674508	53
5	881	134.977722850706	54
5	907	137.319923512255	55
5	919	137.409308848513	56
5	935	140.123191587971	57
5	945	141.290028337882	58
5	967	145.288046384189	59
5	975	147.126595245004	60
5	1007	155.024573770738	61
5	1011	155.064170007184	62
5	1045	159.845907513346	63
5	1059	163.166045963653	64
5	1089	168.361119319894	65
5	1097	168.471214926438	66
5	1109	169.583528683568	67
5	1135	171.045518670521	68
5	1147	171.220562310429	69
5	1151	171.258065788447	70
5	1161	172.686196563705	71
5	1185	178.386545947643	72
5	1201	182.18455678373	73
5	1205	182.210385947234	74
5	1217	182.323560050513	75
5	1227	183.397683269416	76
5	1237	184.806153891253	77
5	1247	188.23497303695	78
5	1255	188.31231616149	79
5	1259	188.383572556873	80
5	1277	190.874849311507	81
5	1287	192.562845995178	82
5	1301	194.64285771781	83
5	1375	202.934985684881	84
5	1389	204.751517866382	85
5	1397	206.079424753952	86
5	1405	207.816407306711	87
5	1427	212.441749631675	88
5	1447	214.865267525766	89
5	1467	217.353633152688	90
5	1483	220.099454462597	91
5	1487	220.134954650955	92
5	1491	220.180487242214	93
5	1499	221.690368170105	94
5	1533	226.519603775307	95
5	1551	229.816551512971	96
5	1567	233.168703748253	97
6	22	2.40316828784	0
6	32	5.516889538641	1
6	44	7.282290946042	2
6	52	8.707158533678	3
6	74	12.244407825591	4
6	116	21.864913629244	5
6	126	24.332108469446	6
6	144	26.412396458499	7
6	176	32.547594320723	8
6	194	33.928230796108	9
6	206	35.500552044644	10
6	218	36.545486124873	11
6	230	37.723494427432	12
6	240	39.22728242329	13
6	250	40.963351007818	14
6	286	47.918244664454	15
6	312	53.233979215002	16
6	320	55.180701844405	17
6	352	60.75978969581	18
6	360	61.776464897587	19
6	370	63.666601549853	20
6	378	64.754442986625	21
6	392	65.860979301506	22
6	400	67.531539516046	23
6	418	70.694903868944	24
6	434	72.423840421239	25
6	450	74.008160003378	26
6	466	76.601116455412	27
6	476	78.625098339493	28
6	494	81.579460539494	29
6	510	85.334945332698	30
6	532	88.240461286673	31
6	568	91.191300195163	32
6	580	92.570181002242	33
6	596	97.044040734336	34
6	604	98.072813767328	35
6	622	99.620256517993	36
6	644	103.059890341482	37
6	654	104.203454814905	38
6	702	110.667589622632	39
6	714	112.932420180688	40
6	726	114.644191083409	41
6	738	116.431903249762	42
6	756	117.711646599987	43
6	766	119.078206050537	44
6	778	120.559510232936	45
6	816	125.807473934929	46
6	834	128.75783113386	47
6	842	129.863467095354	48
6	858	131.67293820069	49
6	876	133.418500448578	50
6	886	135.031186355388	51
6	896	136.155463091204	52
6	922	137.442963991209	53
6	940	140.175988306777	54
6	948	141.310091035391	55
6	958	142.643688867064	56
6	970	145.315167320906	57
6	978	147.152991874984	58
6	986	148.644754101647	59
6	1002	153.236563819597	60
6	1032	158.14206995182	61
6	1050	159.909579055122	62
6	1118	169.717431804705	63
6	1164	172.711460545989	64
6	1188	178.413384507001	65
6	1196	180.307928194611	66
6	1222	182.368198213475	67
6	1232	183.44110242626	68
6	1262	188.420940456358	69
6	1310	194.739579060936	70
6	1324	195.89090261477	71
6	1340	199.346033570809	72
6	1384	203.029206451668	73
6	1392	204.778222188432	74
6	1400	206.118146414585	75
6	1408	207.858861041767	76
6	1432	212.506939764476	77
6	1462	216.13750459719	78
6	1472	217.391010025885	79
6	1494	220.215835855751	80
6	1504	221.735642947703	81
6	1516	223.310981211766	82
6	1528	224.743619323206	83
6	1546	228.514961393941	84
6	1554	229.871397055326	85
6	1562	231.350106089449	86
6	1572	233.206222319174	87
6	1588	236.356290440943	88
6	1598	239.414955085661	89

