version 2
run General-0-20231008-09:20:52-19174
attr configname General
attr datetime 20231008-09:20:52
attr experiment General
attr inifile omnetpp.ini
attr iterationvars ""
attr iterationvarsf ""
attr measurement ""
attr network Network3
attr processid 19174
attr repetition 0
attr replication #0
attr resultdir results
attr runnumber 0
attr seedset 0
param Network3.node[*].transmissionTime "uniform(1s, 2s)"
param Network3.node[*].delayTime "uniform(0.01s, 0.2s)"
param Network3.node[*].processingTime exponential(0.01s)
param Network3.node[0].lossProbability 0
param Network3.node[1].lossProbability 0.5
param Network3.node[2].lossProbability 0.5
param Network3.node[3].lossProbability "0.5 / 2"
param Network3.node[4].lossProbability "0.5 / 2"
param Network3.node[6].lossProbability "0.5 * 2"
param Network3.node[7].lossProbability "0.5 * 2"
param Network3.node[5].lossProbability "0.5 * 3"

vector 0 Network3.node[0] txVector ETV
vector 1 Network3.node[1] txVector ETV
vector 2 Network3.node[2] txVector ETV
vector 3 Network3.node[4] txVector ETV
vector 4 Network3.node[3] txVector ETV
0	1	0.114274565438	0
0	1	0.114274565438	1
0	19	1.707119181827	2
0	19	1.707119181827	3
0	37	3.184784293482	4
0	37	3.184784293482	5
0	55	4.325135070905	6
0	55	4.325135070905	7
0	70	6.083750691339	8
0	70	6.083750691339	9
0	88	7.701386192189	10
0	88	7.701386192189	11
0	103	9.368152903467	12
0	103	9.368152903467	13
0	114	11.002426956622	14
0	114	11.002426956622	15
0	117	12.255718557937	16
0	117	12.255718557937	17
0	123	13.730416063061	18
0	123	13.730416063061	19
0	134	15.405168385319	20
0	134	15.405168385319	21
0	152	16.502269656471	22
0	152	16.502269656471	23
0	167	17.78507661594	24
0	167	17.78507661594	25
0	181	19.350265481583	26
0	181	19.350265481583	27
0	196	20.35962218333	28
0	196	20.35962218333	29
0	199	22.188562211655	30
0	199	22.188562211655	31
0	217	23.335003974922	32
0	217	23.335003974922	33
0	232	25.226558405748	34
0	232	25.226558405748	35
0	246	27.107661606586	36
0	246	27.107661606586	37
0	249	28.751651803106	38
0	249	28.751651803106	39
0	264	30.370460364111	40
0	264	30.370460364111	41
0	267	31.505934432689	42
0	267	31.505934432689	43
0	285	32.5983083193	44
0	285	32.5983083193	45
0	299	34.582350554717	46
0	299	34.582350554717	47
0	305	36.423490684553	48
0	305	36.423490684553	49
0	320	37.931806134832	50
0	320	37.931806134832	51
0	323	39.629234907291	52
0	323	39.629234907291	53
0	341	41.049310274962	54
0	341	41.049310274962	55
0	344	42.538859217036	56
0	344	42.538859217036	57
0	347	43.738855742458	58
0	347	43.738855742458	59
0	362	44.909842335228	60
0	362	44.909842335228	61
0	372	46.53132074194	62
0	372	46.53132074194	63
0	390	48.066953539224	64
0	390	48.066953539224	65
0	404	49.557412341078	66
0	404	49.557412341078	67
0	422	50.93516417833	68
0	422	50.93516417833	69
0	428	52.152061159331	70
0	428	52.152061159331	71
0	442	53.172712164074	72
0	442	53.172712164074	73
0	445	55.045362821622	74
0	445	55.045362821622	75
0	463	56.470814358983	76
0	463	56.470814358983	77
0	470	58.428265214972	78
0	470	58.428265214972	79
0	488	59.852950680144	80
0	488	59.852950680144	81
0	499	61.569810360046	82
0	499	61.569810360046	83
0	517	62.69464342094	84
0	517	62.69464342094	85
0	520	63.903800448943	86
0	520	63.903800448943	87
0	534	65.144629226141	88
0	534	65.144629226141	89
0	537	66.731039396096	90
0	537	66.731039396096	91
0	547	68.243432861594	92
0	547	68.243432861594	93
0	565	69.698601678786	94
0	565	69.698601678786	95
0	571	71.471927693653	96
0	571	71.471927693653	97
0	586	73.252354342797	98
0	586	73.252354342797	99
0	596	74.442202256601	100
0	596	74.442202256601	101
0	606	76.415121746789	102
0	606	76.415121746789	103
0	609	77.496223139185	104
0	609	77.496223139185	105
0	615	79.271442921441	106
0	615	79.271442921441	107
0	626	81.224313592613	108
0	626	81.224313592613	109
0	644	82.313916625763	110
0	644	82.313916625763	111
0	647	83.369290942634	112
0	647	83.369290942634	113
0	650	84.857225514092	114
0	650	84.857225514092	115
0	665	86.313366078148	116
0	665	86.313366078148	117
0	679	87.973405939835	118
0	679	87.973405939835	119
0	682	89.865455601673	120
0	682	89.865455601673	121
0	700	91.062509879313	122
0	700	91.062509879313	123
0	703	92.708080120461	124
0	703	92.708080120461	125
0	721	94.491728088196	126
0	721	94.491728088196	127
0	739	95.621140425868	128
0	739	95.621140425868	129
0	757	97.094361095067	130
0	757	97.094361095067	131
0	775	98.597788521631	132
0	775	98.597788521631	133
0	786	99.692246437382	134
0	786	99.692246437382	135
0	797	101.541284743074	136
0	797	101.541284743074	137
0	807	103.073133925052	138
0	807	103.073133925052	139
0	821	104.171611928457	140
0	821	104.171611928457	141
0	831	105.684686794953	142
0	831	105.684686794953	143
0	834	107.455775847036	144
0	834	107.455775847036	145
0	837	108.467812070233	146
0	837	108.467812070233	147
0	855	110.449451750453	148
0	855	110.449451750453	149
0	866	111.762205043185	150
0	866	111.762205043185	151
0	884	113.428064157331	152
0	884	113.428064157331	153
0	887	115.35303107354	154
0	887	115.35303107354	155
0	890	117.091713731719	156
0	890	117.091713731719	157
0	905	118.44023309516	158
0	905	118.44023309516	159
0	908	119.668496708928	160
0	908	119.668496708928	161
0	926	121.619449317299	162
0	926	121.619449317299	163
0	944	123.368237569772	164
0	944	123.368237569772	165
0	962	125.00223526506	166
0	962	125.00223526506	167
0	977	126.295029296151	168
0	977	126.295029296151	169
0	992	127.314329900623	170
0	992	127.314329900623	171
0	1007	128.769774047036	172
0	1007	128.769774047036	173
0	1010	130.395410664689	174
0	1010	130.395410664689	175
0	1025	132.319569429226	176
0	1025	132.319569429226	177
0	1043	133.706396580284	178
0	1043	133.706396580284	179
0	1049	135.562699558289	180
0	1049	135.562699558289	181
0	1052	137.022919266095	182
0	1052	137.022919266095	183
0	1063	138.553456480691	184
0	1063	138.553456480691	185
0	1074	140.459628321539	186
0	1074	140.459628321539	187
0	1088	142.154898327618	188
0	1088	142.154898327618	189
0	1106	144.117668641807	190
0	1106	144.117668641807	191
0	1124	145.637621019577	192
0	1124	145.637621019577	193
0	1142	147.618201152963	194
0	1142	147.618201152963	195
0	1145	148.654234975187	196
0	1145	148.654234975187	197
0	1148	149.970722894726	198
0	1148	149.970722894726	199
0	1166	151.922865593649	200
0	1166	151.922865593649	201
0	1176	152.99935236511	202
0	1176	152.99935236511	203
0	1186	154.060430903995	204
0	1186	154.060430903995	205
0	1197	155.589370832156	206
0	1197	155.589370832156	207
0	1212	156.594560452114	208
0	1212	156.594560452114	209
0	1230	157.878560431377	210
0	1230	157.878560431377	211
0	1248	159.22195215717	212
0	1248	159.22195215717	213
0	1262	161.198177818284	214
0	1262	161.198177818284	215
0	1265	162.440079523558	216
0	1265	162.440079523558	217
0	1283	163.700708190287	218
0	1283	163.700708190287	219
0	1297	165.296919308445	220
0	1297	165.296919308445	221
0	1300	166.305850572959	222
0	1300	166.305850572959	223
0	1307	167.803627477102	224
0	1307	167.803627477102	225
0	1318	169.788560782401	226
0	1318	169.788560782401	227
0	1325	171.768523102235	228
0	1325	171.768523102235	229
0	1328	173.252229563035	230
0	1328	173.252229563035	231
0	1331	174.656022306839	232
0	1331	174.656022306839	233
0	1349	175.714892591191	234
0	1349	175.714892591191	235
0	1367	177.628883806597	236
0	1367	177.628883806597	237
0	1385	179.028543826267	238
0	1385	179.028543826267	239
0	1395	180.965762654161	240
0	1395	180.965762654161	241
0	1413	182.814102805993	242
0	1413	182.814102805993	243
0	1423	183.95838890465	244
0	1423	183.95838890465	245
0	1434	185.869586064555	246
0	1434	185.869586064555	247
0	1437	187.397820156375	248
0	1437	187.397820156375	249
0	1451	188.468230987042	250
0	1451	188.468230987042	251
0	1469	190.135824293205	252
0	1469	190.135824293205	253
0	1480	191.336340303374	254
0	1480	191.336340303374	255
0	1494	192.383146657217	256
0	1494	192.383146657217	257
0	1512	194.102766811223	258
0	1512	194.102766811223	259
0	1515	195.474685562383	260
0	1515	195.474685562383	261
0	1525	196.568580031935	262
0	1525	196.568580031935	263
0	1543	198.236294923192	264
0	1543	198.236294923192	265
0	1553	199.77516343033	266
0	1553	199.77516343033	267
0	1556	200.969186243676	268
0	1556	200.969186243676	269
0	1574	202.747357837931	270
0	1574	202.747357837931	271
0	1577	203.822716908372	272
0	1577	203.822716908372	273
0	1583	205.229638842708	274
0	1583	205.229638842708	275
0	1598	206.513724974432	276
0	1598	206.513724974432	277
0	1601	207.997118514805	278
0	1601	207.997118514805	279
0	1616	209.004586831742	280
0	1616	209.004586831742	281
0	1631	210.902129592217	282
0	1631	210.902129592217	283
0	1649	212.224146931974	284
0	1649	212.224146931974	285
0	1664	213.572503681604	286
0	1664	213.572503681604	287
0	1682	215.300391838264	288
0	1682	215.300391838264	289
0	1700	216.473343187321	290
0	1700	216.473343187321	291
0	1718	218.362403134659	292
0	1718	218.362403134659	293
0	1736	219.721398412326	294
0	1736	219.721398412326	295
0	1754	221.594955241616	296
0	1754	221.594955241616	297
0	1760	222.952302121866	298
0	1760	222.952302121866	299
0	1763	224.679849117837	300
0	1763	224.679849117837	301
0	1781	226.200723912642	302
0	1781	226.200723912642	303
0	1784	227.245958400733	304
0	1784	227.245958400733	305
0	1790	228.694327578024	306
0	1790	228.694327578024	307
0	1800	230.192507142742	308
0	1800	230.192507142742	309
0	1818	232.00334575547	310
0	1818	232.00334575547	311
0	1828	233.119244227494	312
0	1828	233.119244227494	313
0	1846	234.982714873581	314
0	1846	234.982714873581	315
0	1856	236.883877048111	316
0	1856	236.883877048111	317
0	1871	238.656987102079	318
0	1871	238.656987102079	319
0	1885	239.908450890873	320
0	1885	239.908450890873	321
1	4	0.142870607559	0
1	4	0.142870607559	1
1	4	0.142870607559	2
1	25	1.73384129383	3
1	25	1.73384129383	4
1	25	1.73384129383	5
1	43	3.215193215641	6
1	43	3.215193215641	7
1	43	3.215193215641	8
1	58	4.336254532511	9
1	58	4.336254532511	10
1	58	4.336254532511	11
1	80	6.15649565042	12
1	80	6.15649565042	13
1	80	6.15649565042	14
1	91	7.722492166646	15
1	91	7.722492166646	16
1	91	7.722492166646	17
1	106	9.410082369888	18
1	106	9.410082369888	19
1	106	9.410082369888	20
1	126	13.744231621495	21
1	126	13.744231621495	22
1	126	13.744231621495	23
1	140	15.433366574512	24
1	140	15.433366574512	25
1	140	15.433366574512	26
1	155	16.513550224124	27
1	155	16.513550224124	28
1	155	16.513550224124	29
1	170	17.815109021165	30
1	170	17.815109021165	31
1	170	17.815109021165	32
1	184	19.378738758093	33
1	184	19.378738758093	34
1	184	19.378738758093	35
1	202	22.206993041976	36
1	202	22.206993041976	37
1	202	22.206993041976	38
1	220	23.356400054557	39
1	220	23.356400054557	40
1	220	23.356400054557	41
1	242	25.285028716196	42
1	242	25.285028716196	43
1	242	25.285028716196	44
1	252	28.768092850189	45
1	252	28.768092850189	46
1	252	28.768092850189	47
1	270	31.520304712827	48
1	270	31.520304712827	49
1	270	31.520304712827	50
1	288	32.611323978432	51
1	288	32.611323978432	52
1	288	32.611323978432	53
1	308	36.435316070572	54
1	308	36.435316070572	55
1	308	36.435316070572	56
1	326	39.639754032813	57
1	326	39.639754032813	58
1	326	39.639754032813	59
1	350	43.755081715898	60
1	350	43.755081715898	61
1	350	43.755081715898	62
1	375	46.550234527709	63
1	375	46.550234527709	64
1	375	46.550234527709	65
1	393	48.079533666863	66
1	393	48.079533666863	67
1	393	48.079533666863	68
1	408	49.569392018431	69
1	408	49.569392018431	70
1	408	49.569392018431	71
1	438	52.217108195366	72
1	438	52.217108195366	73
1	438	52.217108195366	74
1	448	55.077020458431	75
1	448	55.077020458431	76
1	448	55.077020458431	77
1	466	56.487196245039	78
1	466	56.487196245039	79
1	466	56.487196245039	80
1	473	58.442951979732	81
1	473	58.442951979732	82
1	473	58.442951979732	83
1	491	59.867993479477	84
1	491	59.867993479477	85
1	491	59.867993479477	86
1	509	61.642731826458	87
1	509	61.642731826458	88
1	509	61.642731826458	89
1	523	63.914857320684	90
1	523	63.914857320684	91
1	523	63.914857320684	92
1	557	68.322485663171	93
1	557	68.322485663171	94
1	557	68.322485663171	95
1	574	71.523946287915	96
1	574	71.523946287915	97
1	574	71.523946287915	98
1	618	79.281583387353	99
1	618	79.281583387353	100
1	618	79.281583387353	101
1	630	81.245462466832	102
1	630	81.245462466832	103
1	630	81.245462466832	104
1	653	84.878722927969	105
1	653	84.878722927969	106
1	653	84.878722927969	107
1	668	86.325680287868	108
1	668	86.325680287868	109
1	668	86.325680287868	110
1	686	89.881614794511	111
1	686	89.881614794511	112
1	686	89.881614794511	113
1	713	92.757249710194	114
1	713	92.757249710194	115
1	713	92.757249710194	116
1	725	94.51037746929	117
1	725	94.51037746929	118
1	725	94.51037746929	119
1	742	95.639820125688	120
1	742	95.639820125688	121
1	742	95.639820125688	122
1	763	97.135091847295	123
1	763	97.135091847295	124
1	763	97.135091847295	125
1	778	98.61782903337	126
1	778	98.61782903337	127
1	778	98.61782903337	128
1	789	99.702585155934	129
1	789	99.702585155934	130
1	789	99.702585155934	131
1	810	103.084099337842	132
1	810	103.084099337842	133
1	810	103.084099337842	134
1	840	108.480617829495	135
1	840	108.480617829495	136
1	840	108.480617829495	137
1	858	110.475638361117	138
1	858	110.475638361117	139
1	858	110.475638361117	140
1	870	111.779488818915	141
1	870	111.779488818915	142
1	870	111.779488818915	143
1	893	117.118585914607	144
1	893	117.118585914607	145
1	893	117.118585914607	146
1	911	119.681154874418	147
1	911	119.681154874418	148
1	911	119.681154874418	149
1	930	121.632164875216	150
1	930	121.632164875216	151
1	930	121.632164875216	152
1	947	123.398433414804	153
1	947	123.398433414804	154
1	947	123.398433414804	155
1	965	125.013888195183	156
1	965	125.013888195183	157
1	965	125.013888195183	158
1	980	126.343938397055	159
1	980	126.343938397055	160
1	980	126.343938397055	161
1	995	127.329466756756	162
1	995	127.329466756756	163
1	995	127.329466756756	164
1	1013	130.425238790492	165
1	1013	130.425238790492	166
1	1013	130.425238790492	167
1	1028	132.337121547404	168
1	1028	132.337121547404	169
1	1028	132.337121547404	170
1	1055	137.05844403103	171
1	1055	137.05844403103	172
1	1055	137.05844403103	173
1	1066	138.563541960877	174
1	1066	138.563541960877	175
1	1066	138.563541960877	176
1	1077	140.480774431569	177
1	1077	140.480774431569	178
1	1077	140.480774431569	179
1	1091	142.165068483855	180
1	1091	142.165068483855	181
1	1091	142.165068483855	182
1	1116	144.171968206553	183
1	1116	144.171968206553	184
1	1116	144.171968206553	185
1	1130	145.668161544416	186
1	1130	145.668161544416	187
1	1130	145.668161544416	188
1	1152	149.984290057253	189
1	1152	149.984290057253	190
1	1152	149.984290057253	191
1	1189	154.074061375539	192
1	1189	154.074061375539	193
1	1189	154.074061375539	194
1	1200	155.634510620386	195
1	1200	155.634510620386	196
1	1200	155.634510620386	197
1	1215	156.607283964378	198
1	1215	156.607283964378	199
1	1215	156.607283964378	200
1	1233	157.897501490258	201
1	1233	157.897501490258	202
1	1233	157.897501490258	203
1	1252	159.254006165208	204
1	1252	159.254006165208	205
1	1252	159.254006165208	206
1	1272	162.470565355124	207
1	1272	162.470565355124	208
1	1272	162.470565355124	209
1	1286	163.732946018445	210
1	1286	163.732946018445	211
1	1286	163.732946018445	212
1	1303	166.324551372063	213
1	1303	166.324551372063	214
1	1303	166.324551372063	215
1	1310	167.836317167968	216
1	1310	167.836317167968	217
1	1310	167.836317167968	218
1	1321	169.804072161884	219
1	1321	169.804072161884	220
1	1321	169.804072161884	221
1	1334	174.667344422837	222
1	1334	174.667344422837	223
1	1334	174.667344422837	224
1	1353	175.736033738556	225
1	1353	175.736033738556	226
1	1353	175.736033738556	227
1	1377	177.67946300066	228
1	1377	177.67946300066	229
1	1377	177.67946300066	230
1	1399	180.990488782786	231
1	1399	180.990488782786	232
1	1399	180.990488782786	233
1	1426	183.990012954077	234
1	1426	183.990012954077	235
1	1426	183.990012954077	236
1	1441	187.413299280752	237
1	1441	187.413299280752	238
1	1441	187.413299280752	239
1	1454	188.480371808989	240
1	1454	188.480371808989	241
1	1454	188.480371808989	242
1	1472	190.153040880682	243
1	1472	190.153040880682	244
1	1472	190.153040880682	245
1	1486	191.381652717379	246
1	1486	191.381652717379	247
1	1486	191.381652717379	248
1	1497	192.427075964363	249
1	1497	192.427075964363	250
1	1497	192.427075964363	251
1	1535	196.648055696971	252
1	1535	196.648055696971	253
1	1535	196.648055696971	254
1	1559	200.9977803094	255
1	1559	200.9977803094	256
1	1559	200.9977803094	257
1	1586	205.267019075661	258
1	1586	205.267019075661	259
1	1586	205.267019075661	260
1	1604	208.033346770024	261
1	1604	208.033346770024	262
1	1604	208.033346770024	263
1	1619	209.029282164901	264
1	1619	209.029282164901	265
1	1619	209.029282164901	266
1	1641	210.961576858684	267
1	1641	210.961576858684	268
1	1641	210.961576858684	269
1	1652	212.235070807162	270
1	1652	212.235070807162	271
1	1652	212.235070807162	272
1	1667	213.592649949147	273
1	1667	213.592649949147	274
1	1667	213.592649949147	275
1	1685	215.311525885486	276
1	1685	215.311525885486	277
1	1685	215.311525885486	278
1	1706	216.496709797709	279
1	1706	216.496709797709	280
1	1706	216.496709797709	281
1	1721	218.40006793634	282
1	1721	218.40006793634	283
1	1721	218.40006793634	284
1	1739	219.73816902945	285
1	1739	219.73816902945	286
1	1739	219.73816902945	287
1	1767	224.694565075042	288
1	1767	224.694565075042	289
1	1767	224.694565075042	290
1	1803	230.206787194247	291
1	1803	230.206787194247	292
1	1803	230.206787194247	293
1	1832	233.137603003169	294
1	1832	233.137603003169	295
1	1832	233.137603003169	296
1	1859	236.896321617037	297
1	1859	236.896321617037	298
1	1859	236.896321617037	299
1	1881	238.697613904819	300
1	1881	238.697613904819	301
1	1881	238.697613904819	302
1	1888	239.931583754426	303
1	1888	239.931583754426	304
1	1888	239.931583754426	305
2	5	0.143790018797	0
2	5	0.143790018797	1
2	22	1.723658007499	2
2	22	1.723658007499	3
2	40	3.201201385209	4
2	40	3.201201385209	5
2	73	6.09626511066	6
2	73	6.09626511066	7
2	120	12.267449832498	8
2	120	12.267449832498	9
2	137	15.416178733072	10
2	137	15.416178733072	11
2	178	17.860832549558	12
2	178	17.860832549558	13
2	214	22.238980439036	14
2	214	22.238980439036	15
2	235	25.240315794172	16
2	235	25.240315794172	17
2	271	31.523959952547	18
2	271	31.523959952547	19
2	289	32.616009087895	20
2	289	32.616009087895	21
2	302	34.612609642888	22
2	302	34.612609642888	23
2	327	39.643784025739	24
2	327	39.643784025739	25
2	365	44.931852044293	26
2	365	44.931852044293	27
2	376	46.554418595654	28
2	376	46.554418595654	29
2	394	48.079888615743	30
2	394	48.079888615743	31
2	407	49.567662224611	32
2	407	49.567662224611	33
2	425	50.968853360038	34
2	425	50.968853360038	35
2	431	52.183396792206	36
2	431	52.183396792206	37
2	460	55.132555707332	38
2	460	55.132555707332	39
2	474	58.44449350807	40
2	474	58.44449350807	41
2	502	61.60801671953	42
2	502	61.60801671953	43
2	531	63.976761192984	44
2	531	63.976761192984	45
2	540	66.778979633927	46
2	540	66.778979633927	47
2	550	68.283254868349	48
2	550	68.283254868349	49
2	568	69.712867036906	50
2	568	69.712867036906	51
2	589	73.26364014517	52
2	589	73.26364014517	53
2	599	74.467755200205	54
2	599	74.467755200205	55
2	612	77.507644394299	56
2	612	77.507644394299	57
2	629	81.237128832838	58
2	629	81.237128832838	59
2	673	86.34215726249	60
2	673	86.34215726249	61
2	685	89.875911982168	62
2	685	89.875911982168	63
2	706	92.725213963289	64
2	706	92.725213963289	65
2	724	94.502696062919	66
2	724	94.502696062919	67
2	750	95.661844497174	68
2	750	95.661844497174	69
2	760	97.112521280707	70
2	760	97.112521280707	71
2	800	101.556414012992	72
2	800	101.556414012992	73
2	818	103.123299834102	74
2	818	103.123299834102	75
2	824	104.182316947941	76
2	824	104.182316947941	77
2	841	108.482501283506	78
2	841	108.482501283506	79
2	869	111.777723064401	80
2	869	111.777723064401	81
2	920	119.711729147351	82
2	920	119.711729147351	83
2	929	121.631334964542	84
2	929	121.631334964542	85
2	948	123.406406687072	86
2	948	123.406406687072	87
2	1034	132.358520605396	88
2	1034	132.358520605396	89
2	1046	133.728786945358	90
2	1046	133.728786945358	91
2	1081	140.499360404934	92
2	1081	140.499360404934	93
2	1095	142.17682148536	94
2	1095	142.17682148536	95
2	1109	144.144102174159	96
2	1109	144.144102174159	97
2	1127	145.654607055246	98
2	1127	145.654607055246	99
2	1151	149.982471997327	100
2	1151	149.982471997327	101
2	1169	151.957056107591	102
2	1169	151.957056107591	103
2	1179	153.011390218932	104
2	1179	153.011390218932	105
2	1216	156.611786474489	106
2	1216	156.611786474489	107
2	1234	157.899324335971	108
2	1234	157.899324335971	109
2	1251	159.246415232892	110
2	1251	159.246415232892	111
2	1268	162.452056841237	112
2	1268	162.452056841237	113
2	1294	163.757418322013	114
2	1294	163.757418322013	115
2	1346	174.703282618698	116
2	1346	174.703282618698	117
2	1352	175.72880943659	118
2	1352	175.72880943659	119
2	1370	177.648205674003	120
2	1370	177.648205674003	121
2	1388	179.045971063764	122
2	1388	179.045971063764	123
2	1398	180.988511168686	124
2	1398	180.988511168686	125
2	1416	182.824781364773	126
2	1416	182.824781364773	127
2	1440	187.412735609963	128
2	1440	187.412735609963	129
2	1460	188.503252566867	130
2	1460	188.503252566867	131
2	1483	191.346378981606	132
2	1483	191.346378981606	133
2	1509	192.456020319687	134
2	1509	192.456020319687	135
2	1518	195.488516243054	136
2	1518	195.488516243054	137
2	1528	196.599839337634	138
2	1528	196.599839337634	139
2	1546	198.248110715369	140
2	1546	198.248110715369	141
2	1571	201.036325701732	142
2	1571	201.036325701732	143
2	1580	203.841115243386	144
2	1580	203.841115243386	145
2	1634	210.917288409442	146
2	1634	210.917288409442	147
2	1668	213.599213547356	148
2	1668	213.599213547356	149
2	1689	215.327393077557	150
2	1689	215.327393077557	151
2	1703	216.483394850182	152
2	1703	216.483394850182	153
2	1733	218.429873159153	154
2	1733	218.429873159153	155
2	1743	219.754320908584	156
2	1743	219.754320908584	157
2	1757	221.64320093818	158
2	1757	221.64320093818	159
2	1766	224.692621152222	160
2	1766	224.692621152222	161
2	1787	227.2578481859	162
2	1787	227.2578481859	163
2	1793	228.731308408454	164
2	1793	228.731308408454	165
2	1812	230.240917609429	166
2	1812	230.240917609429	167
2	1821	232.027137908977	168
2	1821	232.027137908977	169
2	1831	233.133831580907	170
2	1831	233.133831580907	171
2	1849	235.002245407843	172
2	1849	235.002245407843	173
2	1874	238.668623296214	174
2	1874	238.668623296214	175
2	1900	239.970834295208	176
2	1900	239.970834295208	177
3	11	0.158381092426	0
3	11	0.158381092426	1
3	11	0.158381092426	2
3	33	1.759640548357	3
3	33	1.759640548357	4
3	33	1.759640548357	5
3	44	3.217390679805	6
3	44	3.217390679805	7
3	44	3.217390679805	8
3	62	4.348316565331	9
3	62	4.348316565331	10
3	62	4.348316565331	11
3	76	6.135044260873	12
3	76	6.135044260873	13
3	76	6.135044260873	14
3	95	7.73387245353	15
3	95	7.73387245353	16
3	95	7.73387245353	17
3	145	15.44723194608	18
3	145	15.44723194608	19
3	145	15.44723194608	20
3	159	16.524814110488	21
3	159	16.524814110488	22
3	159	16.524814110488	23
3	174	17.849964844735	24
3	174	17.849964844735	25
3	174	17.849964844735	26
3	192	19.407151582808	27
3	192	19.407151582808	28
3	192	19.407151582808	29
3	206	22.220396509358	30
3	206	22.220396509358	31
3	206	22.220396509358	32
3	228	23.404830120389	33
3	228	23.404830120389	34
3	228	23.404830120389	35
3	238	25.262109623508	36
3	238	25.262109623508	37
3	238	25.262109623508	38
3	257	28.790683285362	39
3	257	28.790683285362	40
3	257	28.790683285362	41
3	277	31.539606057558	42
3	277	31.539606057558	43
3	277	31.539606057558	44
3	293	32.622380104868	45
3	293	32.622380104868	46
3	293	32.622380104868	47
3	316	36.465335935527	48
3	316	36.465335935527	49
3	316	36.465335935527	50
3	334	39.658246553944	51
3	334	39.658246553944	52
3	334	39.658246553944	53
3	358	43.793927158782	54
3	358	43.793927158782	55
3	358	43.793927158782	56
3	368	44.969065526852	57
3	368	44.969065526852	58
3	368	44.969065526852	59
3	383	46.568314328243	60
3	383	46.568314328243	61
3	383	46.568314328243	62
3	400	48.093625313687	63
3	400	48.093625313687	64
3	400	48.093625313687	65
3	414	49.58590432575	66
3	414	49.58590432575	67
3	414	49.58590432575	68
3	434	52.198233176081	69
3	434	52.198233176081	70
3	434	52.198233176081	71
3	452	55.093110904558	72
3	452	55.093110904558	73
3	452	55.093110904558	74
3	480	58.455015559668	75
3	480	58.455015559668	76
3	480	58.455015559668	77
3	495	59.880018067114	78
3	495	59.880018067114	79
3	495	59.880018067114	80
3	505	61.631760149674	81
3	505	61.631760149674	82
3	505	61.631760149674	83
3	527	63.951382905839	84
3	527	63.951382905839	85
3	527	63.951382905839	86
3	543	66.79830575248	87
3	543	66.79830575248	88
3	543	66.79830575248	89
3	553	68.305827238305	90
3	553	68.305827238305	91
3	553	68.305827238305	92
3	578	71.533986851128	93
3	578	71.533986851128	94
3	578	71.533986851128	95
3	592	73.274669828807	96
3	592	73.274669828807	97
3	592	73.274669828807	98
3	602	74.492629497748	99
3	602	74.492629497748	100
3	602	74.492629497748	101
3	622	79.295215809542	102
3	622	79.295215809542	103
3	622	79.295215809542	104
3	637	81.261077523751	105
3	637	81.261077523751	106
3	637	81.261077523751	107
3	657	84.892056961353	108
3	657	84.892056961353	109
3	657	84.892056961353	110
3	672	86.338683538671	111
3	672	86.338683538671	112
3	672	86.338683538671	113
3	692	89.892661491905	114
3	692	89.892661491905	115
3	692	89.892661491905	116
3	709	92.736766819144	117
3	709	92.736766819144	118
3	709	92.736766819144	119
3	732	94.534070279823	120
3	732	94.534070279823	121
3	732	94.534070279823	122
3	746	95.650094546692	123
3	746	95.650094546692	124
3	746	95.650094546692	125
3	767	97.153666198321	126
3	767	97.153666198321	127
3	767	97.153666198321	128
3	803	101.577816801761	129
3	803	101.577816801761	130
3	803	101.577816801761	131
3	814	103.095004412543	132
3	814	103.095004412543	133
3	814	103.095004412543	134
3	827	104.192646987792	135
3	827	104.192646987792	136
3	827	104.192646987792	137
3	848	108.502683459294	138
3	848	108.502683459294	139
3	848	108.502683459294	140
3	876	111.793306332294	141
3	876	111.793306332294	142
3	876	111.793306332294	143
3	901	117.163314471666	144
3	901	117.163314471666	145
3	901	117.163314471666	146
3	915	119.691756158109	147
3	915	119.691756158109	148
3	915	119.691756158109	149
3	936	121.644848177357	150
3	936	121.644848177357	151
3	936	121.644848177357	152
3	952	123.408682695761	153
3	952	123.408682695761	154
3	952	123.408682695761	155
3	969	125.025295646737	156
3	969	125.025295646737	157
3	969	125.025295646737	158
3	985	126.356931927084	159
3	985	126.356931927084	160
3	985	126.356931927084	161
3	1000	127.34651624997	162
3	1000	127.34651624997	163
3	1000	127.34651624997	164
3	1017	130.438164296504	165
3	1017	130.438164296504	166
3	1017	130.438164296504	167
3	1032	132.34941471912	168
3	1032	132.34941471912	169
3	1032	132.34941471912	170
3	1059	137.073651819679	171
3	1059	137.073651819679	172
3	1059	137.073651819679	173
3	1084	140.518533122903	174
3	1084	140.518533122903	175
3	1084	140.518533122903	176
3	1097	142.186623231142	177
3	1097	142.186623231142	178
3	1097	142.186623231142	179
3	1112	144.156686766646	180
3	1112	144.156686766646	181
3	1112	144.156686766646	182
3	1131	145.672418743146	183
3	1131	145.672418743146	184
3	1131	145.672418743146	185
3	1158	150.001583455408	186
3	1158	150.001583455408	187
3	1158	150.001583455408	188
3	1172	151.967460323368	189
3	1172	151.967460323368	190
3	1172	151.967460323368	191
3	1182	153.044224159276	192
3	1182	153.044224159276	193
3	1182	153.044224159276	194
3	1205	155.647979909218	195
3	1205	155.647979909218	196
3	1205	155.647979909218	197
3	1226	156.643625278337	198
3	1226	156.643625278337	199
3	1226	156.643625278337	200
3	1238	157.907884378236	201
3	1238	157.907884378236	202
3	1238	157.907884378236	203
3	1255	159.259592926306	204
3	1255	159.259592926306	205
3	1255	159.259592926306	206
3	1271	162.46330477216	207
3	1271	162.46330477216	208
3	1271	162.46330477216	209
3	1290	163.745322677156	210
3	1290	163.745322677156	211
3	1290	163.745322677156	212
3	1314	167.8527263222	213
3	1314	167.8527263222	214
3	1314	167.8527263222	215
3	1339	174.682447136815	216
3	1339	174.682447136815	217
3	1339	174.682447136815	218
3	1356	175.739980136983	219
3	1356	175.739980136983	220
3	1356	175.739980136983	221
3	1373	177.669162172705	222
3	1373	177.669162172705	223
3	1373	177.669162172705	224
3	1391	179.104346938255	225
3	1391	179.104346938255	226
3	1391	179.104346938255	227
3	1405	181.00103256545	228
3	1405	181.00103256545	229
3	1405	181.00103256545	230
3	1419	182.839393622549	231
3	1419	182.839393622549	232
3	1419	182.839393622549	233
3	1447	187.445903285226	234
3	1447	187.445903285226	235
3	1447	187.445903285226	236
3	1458	188.494905943172	237
3	1458	188.494905943172	238
3	1458	188.494905943172	239
3	1476	190.182136430867	240
3	1476	190.182136430867	241
3	1476	190.182136430867	242
3	1490	191.393517213721	243
3	1490	191.393517213721	244
3	1490	191.393517213721	245
3	1501	192.440648482316	246
3	1501	192.440648482316	247
3	1501	192.440648482316	248
3	1521	195.508835450083	249
3	1521	195.508835450083	250
3	1521	195.508835450083	251
3	1531	196.6328754064	252
3	1531	196.6328754064	253
3	1531	196.6328754064	254
3	1549	198.270891578308	255
3	1549	198.270891578308	256
3	1549	198.270891578308	257
3	1563	201.013347336041	258
3	1563	201.013347336041	259
3	1563	201.013347336041	260
3	1591	205.286460488182	261
3	1591	205.286460488182	262
3	1591	205.286460488182	263
3	1609	208.055559571793	264
3	1609	208.055559571793	265
3	1609	208.055559571793	266
3	1624	209.049001928832	267
3	1624	209.049001928832	268
3	1624	209.049001928832	269
3	1637	210.940242976081	270
3	1637	210.940242976081	271
3	1637	210.940242976081	272
3	1660	212.257601588102	273
3	1660	212.257601588102	274
3	1660	212.257601588102	275
3	1672	213.603240239676	276
3	1672	213.603240239676	277
3	1672	213.603240239676	278
3	1690	215.330412925762	279
3	1690	215.330412925762	280
3	1690	215.330412925762	281
3	1707	216.504918960376	282
3	1707	216.504918960376	283
3	1707	216.504918960376	284
3	1725	218.413392455556	285
3	1725	218.413392455556	286
3	1725	218.413392455556	287
3	1750	219.780906842453	288
3	1750	219.780906842453	289
3	1750	219.780906842453	290
3	1773	224.706845186716	291
3	1773	224.706845186716	292
3	1773	224.706845186716	293
3	1796	228.746440492266	294
3	1796	228.746440492266	295
3	1796	228.746440492266	296
3	1807	230.217399388568	297
3	1807	230.217399388568	298
3	1807	230.217399388568	299
3	1824	232.076503970275	300
3	1824	232.076503970275	301
3	1824	232.076503970275	302
3	1842	233.188704565019	303
3	1842	233.188704565019	304
3	1842	233.188704565019	305
3	1852	235.025176127222	306
3	1852	235.025176127222	307
3	1852	235.025176127222	308
3	1863	236.906760343817	309
3	1863	236.906760343817	310
3	1863	236.906760343817	311
3	1877	238.680420937096	312
3	1877	238.680420937096	313
3	1877	238.680420937096	314
3	1893	239.948590464848	315
3	1893	239.948590464848	316
3	1893	239.948590464848	317
4	12	0.163252200566	0
4	12	0.163252200566	1
4	12	0.163252200566	2
4	29	1.744752904091	3
4	29	1.744752904091	4
4	29	1.744752904091	5
4	48	3.226451959735	6
4	48	3.226451959735	7
4	48	3.226451959735	8
4	66	4.359607434357	9
4	66	4.359607434357	10
4	66	4.359607434357	11
4	84	6.178456728415	12
4	84	6.178456728415	13
4	84	6.178456728415	14
4	96	7.736281786289	15
4	96	7.736281786289	16
4	96	7.736281786289	17
4	110	9.421841505342	18
4	110	9.421841505342	19
4	110	9.421841505342	20
4	130	13.758831761072	21
4	130	13.758831761072	22
4	130	13.758831761072	23
4	144	15.443939843776	24
4	144	15.443939843776	25
4	144	15.443939843776	26
4	160	16.527377233613	27
4	160	16.527377233613	28
4	160	16.527377233613	29
4	188	19.391813935331	30
4	188	19.391813935331	31
4	188	19.391813935331	32
4	207	22.222672083511	33
4	207	22.222672083511	34
4	207	22.222672083511	35
4	224	23.367635321031	36
4	224	23.367635321031	37
4	224	23.367635321031	38
4	256	28.781489497515	39
4	256	28.781489497515	40
4	256	28.781489497515	41
4	281	31.56503006762	42
4	281	31.56503006762	43
4	281	31.56503006762	44
4	312	36.450616099353	45
4	312	36.450616099353	46
4	312	36.450616099353	47
4	331	39.652377325905	48
4	331	39.652377325905	49
4	331	39.652377325905	50
4	354	43.774453103075	51
4	354	43.774453103075	52
4	354	43.774453103075	53
4	380	46.562622056437	54
4	380	46.562622056437	55
4	380	46.562622056437	56
4	415	49.59069557389	57
4	415	49.59069557389	58
4	415	49.59069557389	59
4	453	55.093625489228	60
4	453	55.093625489228	61
4	453	55.093625489228	62
4	484	58.469432741464	63
4	484	58.469432741464	64
4	484	58.469432741464	65
4	513	61.665888089041	66
4	513	61.665888089041	67
4	513	61.665888089041	68
4	561	68.351099979601	69
4	561	68.351099979601	70
4	561	68.351099979601	71
4	579	71.537086266896	72
4	579	71.537086266896	73
4	579	71.537086266896	74
4	636	81.260227252658	75
4	636	81.260227252658	76
4	636	81.260227252658	77
4	658	84.893502107844	78
4	658	84.893502107844	79
4	658	84.893502107844	80
4	696	89.913045791515	81
4	696	89.913045791515	82
4	696	89.913045791515	83
4	717	92.768839830362	84
4	717	92.768839830362	85
4	717	92.768839830362	86
4	731	94.533257089041	87
4	731	94.533257089041	88
4	731	94.533257089041	89
4	751	95.662965346669	90
4	751	95.662965346669	91
4	751	95.662965346669	92
4	768	97.162282540413	93
4	768	97.162282540413	94
4	768	97.162282540413	95
4	782	98.633346069496	96
4	782	98.633346069496	97
4	782	98.633346069496	98
4	793	99.718452844001	99
4	793	99.718452844001	100
4	793	99.718452844001	101
4	847	108.494329446703	102
4	847	108.494329446703	103
4	847	108.494329446703	104
4	862	110.496500394229	105
4	862	110.496500394229	106
4	862	110.496500394229	107
4	877	111.802891578535	108
4	877	111.802891578535	109
4	877	111.802891578535	110
4	897	117.152119262288	111
4	897	117.152119262288	112
4	897	117.152119262288	113
4	919	119.704274505229	114
4	919	119.704274505229	115
4	919	119.704274505229	116
4	937	121.64650152377	117
4	937	121.64650152377	118
4	937	121.64650152377	119
4	953	123.410044840592	120
4	953	123.410044840592	121
4	953	123.410044840592	122
4	970	125.033154581186	123
4	970	125.033154581186	124
4	970	125.033154581186	125
4	984	126.356365851429	126
4	984	126.356365851429	127
4	984	126.356365851429	128
4	999	127.343182914304	129
4	999	127.343182914304	130
4	999	127.343182914304	131
4	1018	130.441147142696	132
4	1018	130.441147142696	133
4	1018	130.441147142696	134
4	1033	132.351302463993	135
4	1033	132.351302463993	136
4	1033	132.351302463993	137
4	1070	138.574771586546	138
4	1070	138.574771586546	139
4	1070	138.574771586546	140
4	1096	142.185526736783	141
4	1096	142.185526736783	142
4	1096	142.185526736783	143
4	1120	144.191613204171	144
4	1120	144.191613204171	145
4	1120	144.191613204171	146
4	1138	145.689577699651	147
4	1138	145.689577699651	148
4	1138	145.689577699651	149
4	1159	150.002986210861	150
4	1159	150.002986210861	151
4	1159	150.002986210861	152
4	1193	154.093157082588	153
4	1193	154.093157082588	154
4	1193	154.093157082588	155
4	1204	155.646746610969	156
4	1204	155.646746610969	157
4	1204	155.646746610969	158
4	1222	156.626250822744	159
4	1222	156.626250822744	160
4	1222	156.626250822744	161
4	1244	157.9492559263	162
4	1244	157.9492559263	163
4	1244	157.9492559263	164
4	1279	162.50883059483	165
4	1279	162.50883059483	166
4	1279	162.50883059483	167
4	1338	174.682147340975	168
4	1338	174.682147340975	169
4	1338	174.682147340975	170
4	1363	175.751231958005	171
4	1363	175.751231958005	172
4	1363	175.751231958005	173
4	1381	177.711655955878	174
4	1381	177.711655955878	175
4	1381	177.711655955878	176
4	1406	181.001380493609	177
4	1406	181.001380493609	178
4	1406	181.001380493609	179
4	1430	184.002239342597	180
4	1430	184.002239342597	181
4	1430	184.002239342597	182
4	1459	188.497324566799	183
4	1459	188.497324566799	184
4	1459	188.497324566799	185
4	1502	192.445049949121	186
4	1502	192.445049949121	187
4	1502	192.445049949121	188
4	1539	196.669622689868	189
4	1539	196.669622689868	190
4	1539	196.669622689868	191
4	1567	201.026286165866	192
4	1567	201.026286165866	193
4	1567	201.026286165866	194
4	1590	205.277045882244	195
4	1590	205.277045882244	196
4	1590	205.277045882244	197
4	1608	208.052411782796	198
4	1608	208.052411782796	199
4	1608	208.052411782796	200
4	1623	209.042686946816	201
4	1623	209.042686946816	202
4	1623	209.042686946816	203
4	1645	210.972242910056	204
4	1645	210.972242910056	205
4	1645	210.972242910056	206
4	1656	212.246781325352	207
4	1656	212.246781325352	208
4	1656	212.246781325352	209
4	1673	213.603484429323	210
4	1673	213.603484429323	211
4	1673	213.603484429323	212
4	1696	215.344205789394	213
4	1696	215.344205789394	214
4	1696	215.344205789394	215
4	1714	216.528356069466	216
4	1714	216.528356069466	217
4	1714	216.528356069466	218
4	1726	218.414217502167	219
4	1726	218.414217502167	220
4	1726	218.414217502167	221
4	1744	219.755776195468	222
4	1744	219.755776195468	223
4	1744	219.755776195468	224
4	1777	224.717879118546	225
4	1777	224.717879118546	226
4	1777	224.717879118546	227
4	1811	230.237664096878	228
4	1811	230.237664096878	229
4	1811	230.237664096878	230
4	1838	233.176597989706	231
4	1838	233.176597989706	232
4	1838	233.176597989706	233
4	1864	236.910372349329	234
4	1864	236.910372349329	235
4	1864	236.910372349329	236
4	1892	239.946566642598	237
4	1892	239.946566642598	238
4	1892	239.946566642598	239

