version 2
run General-3-20230921-23:10:37-8425
attr configname General
attr datetime 20230921-23:10:37
attr experiment General
attr inifile omnetpp.ini
attr iterationvars ""
attr iterationvarsf ""
attr measurement ""
attr network Network1
attr processid 8425
attr repetition 3
attr replication #3
attr resultdir results
attr runnumber 3
attr seedset 3
param Network1.node[*].transmissionTime "uniform(1s, 2s)"
param Network1.node[*].delayTime "uniform(0.01s, 0.2s)"
param Network1.node[*].processingTime exponential(0.01s)
param Network1.node[*].lossProbability 0.1

vector 0 Network1.node[0] txVector ETV
vector 1 Network1.node[1] txVector ETV
vector 2 Network1.node[2] txVector ETV
vector 3 Network1.node[3] txVector ETV
vector 4 Network1.node[4] txVector ETV
vector 5 Network1.node[5] rxVector ETV
0	1	0.114651601831	0
0	9	1.185376482154	1
0	11	2.310961798136	2
0	19	3.518204676756	3
0	25	4.73378168915	4
0	33	6.499608063675	5
0	41	7.940061786282	6
0	45	9.833126892639	7
0	53	11.809122320568	8
0	61	13.222841004213	9
0	69	14.691781249666	10
0	77	16.562853300316	11
0	85	18.0768883541	12
0	95	19.534220529325	13
0	103	21.055824866123	14
0	111	22.747302375804	15
0	113	24.673035160243	16
0	121	25.95035820927	17
0	123	27.138173034252	18
0	135	29.090274279309	19
0	149	30.890877790121	20
0	157	32.093755438296	21
0	167	33.582628687682	22
0	175	34.656252352359	23
0	183	35.913458730398	24
0	191	37.565681855265	25
0	201	39.425735318173	26
0	209	41.133166824771	27
0	211	42.291200485617	28
0	217	43.986163924053	29
0	225	45.712853678573	30
0	233	47.209518633155	31
0	245	48.450088947849	32
0	255	50.378587794328	33
0	257	52.021662773169	34
0	269	53.804046752234	35
0	273	55.504558533267	36
0	275	56.526654347614	37
0	283	57.749030667194	38
0	287	59.251781714917	39
0	295	61.054609685042	40
0	299	62.131105965772	41
0	309	63.256927005551	42
0	317	64.655063916766	43
0	321	65.898042100086	44
0	323	67.172679569642	45
0	327	69.114593933173	46
0	335	70.794095740956	47
0	345	71.974836069927	48
0	349	73.612888951389	49
0	355	74.888441412778	50
0	357	76.500035249231	51
0	361	77.542066103149	52
0	369	78.642643815907	53
0	379	80.613866052194	54
0	387	82.442297977232	55
0	395	84.272168013802	56
0	397	86.199697290151	57
0	405	87.420033621206	58
0	415	89.328391641448	59
0	423	90.534031193307	60
0	431	92.396636277972	61
0	439	94.293699885788	62
0	449	95.968509821989	63
0	457	97.511689274874	64
0	459	98.961528200027	65
0	463	100.373959266417	66
0	475	101.511769159301	67
0	487	103.394203301589	68
0	489	104.9316376779	69
0	497	106.927423986677	70
0	507	108.323686162313	71
0	511	109.733259392507	72
0	521	111.716421180475	73
0	523	113.260399135831	74
0	525	114.795324472548	75
0	533	116.259861450014	76
0	541	117.342653475539	77
0	557	118.670719218045	78
0	563	120.497646371671	79
0	575	121.525283979322	80
0	579	123.244774484611	81
0	587	124.619836600334	82
0	595	126.114166172058	83
0	605	127.659569737338	84
0	609	129.188505809591	85
0	617	130.872807480465	86
0	625	132.63459371829	87
0	633	134.375950885076	88
0	643	135.689951812919	89
0	655	137.307192970138	90
0	663	138.321907754593	91
0	673	139.618503174583	92
0	681	141.265016311385	93
0	683	143.069132415882	94
0	689	144.155650556392	95
0	699	146.021666375526	96
0	707	147.344754825185	97
0	715	149.227086319893	98
0	731	150.391561246549	99
0	739	152.225246765257	100
0	747	153.567454613584	101
0	749	154.9943532069	102
0	757	156.671626463139	103
0	761	157.847138096418	104
0	769	159.517160431089	105
0	777	161.279762854174	106
0	795	162.561011837403	107
0	803	163.685347081468	108
0	809	165.644985647945	109
0	823	167.625321279818	110
0	831	169.603582898693	111
0	839	171.413259796405	112
0	847	173.23738940533	113
0	853	174.637661929547	114
0	861	176.180659599208	115
0	869	177.867459544751	116
0	881	179.394119756601	117
0	891	180.661886939152	118
0	901	182.603740364618	119
0	903	183.8939406805	120
0	909	185.353583535019	121
0	915	186.567726456633	122
0	925	188.285586604456	123
0	935	189.410581782999	124
0	943	191.083204660871	125
0	947	192.110347236114	126
0	957	193.391444310852	127
0	965	194.907829570192	128
0	971	196.86021359668	129
0	979	197.971958462921	130
0	987	199.738940112366	131
0	989	200.996705765211	132
0	999	202.779683545073	133
0	1003	204.744234495405	134
0	1013	205.79395866029	135
0	1023	207.085682452033	136
0	1027	208.477967656526	137
0	1033	209.840745525277	138
0	1039	210.92432562572	139
0	1049	212.466525814571	140
0	1057	214.114204699016	141
0	1061	215.683025774621	142
0	1069	217.502143459237	143
0	1071	219.079084428103	144
0	1081	220.226197374129	145
0	1091	221.429411251639	146
0	1103	223.140279934584	147
0	1113	224.928999705781	148
0	1121	226.503601346007	149
0	1137	227.611900126636	150
0	1143	228.817980493726	151
0	1149	230.587530686129	152
0	1157	232.172904773457	153
0	1165	233.276010486605	154
0	1173	234.417697639978	155
0	1185	236.386054264922	156
0	1193	237.955611201544	157
0	1201	239.245092295884	158
1	3	0.14297423212	0
1	13	2.321490187313	1
1	21	3.532572765156	2
1	27	4.780143903066	3
1	35	6.511314378095	4
1	43	7.962735245005	5
1	47	9.854286013711	6
1	55	11.834593456186	7
1	63	13.235977645636	8
1	71	14.718453390171	9
1	79	16.573766006856	10
1	87	18.10340983729	11
1	97	19.54575902895	12
1	105	21.076336721279	13
1	115	24.684971761588	14
1	125	27.15961787253	15
1	137	29.104580958103	16
1	151	30.932659024519	17
1	159	32.130057493522	18
1	169	33.614921401326	19
1	177	34.669490856296	20
1	185	35.95479707403	21
1	193	37.578145950203	22
1	203	39.439890562388	23
1	213	42.319615422332	24
1	219	43.997665958671	25
1	227	45.73501884677	26
1	235	47.237113267861	27
1	247	48.464600001637	28
1	259	52.047450030707	29
1	271	53.832407696734	30
1	277	56.541066498865	31
1	285	57.776691647414	32
1	289	59.28488494496	33
1	297	61.072348760844	34
1	301	62.190615804843	35
1	311	63.282466523722	36
1	319	64.671593711142	37
1	325	67.185919820715	38
1	329	69.14045137092	39
1	337	70.817714857896	40
1	347	71.995482060777	41
1	351	73.624458881392	42
1	359	76.515435509193	43
1	363	77.559036115998	44
1	371	78.65921865124	45
1	381	80.62429585291	46
1	389	82.462370345237	47
1	399	86.212599881401	48
1	407	87.442618463727	49
1	417	89.341028483799	50
1	425	90.551085117071	51
1	433	92.414584268609	52
1	441	94.319347121535	53
1	451	95.986659973721	54
1	461	99.005559256646	55
1	465	100.383980544647	56
1	477	101.531591018193	57
1	491	104.942140682396	58
1	499	106.942306025917	59
1	509	108.342869054136	60
1	513	109.772374649041	61
1	527	114.805391639809	62
1	535	116.272354703922	63
1	543	117.356883965544	64
1	559	118.686581134448	65
1	565	120.508733197636	66
1	577	121.541836556402	67
1	581	123.263071527489	68
1	589	124.637344473363	69
1	597	126.155741901763	70
1	607	127.670999699679	71
1	611	129.205991610583	72
1	619	130.885666848855	73
1	627	132.648965822713	74
1	635	134.389903462535	75
1	645	135.707846531582	76
1	657	137.333568583876	77
1	665	138.342007108852	78
1	675	139.629524136582	79
1	685	143.084848555792	80
1	691	144.170426419507	81
1	701	146.035936862025	82
1	709	147.365106048026	83
1	717	149.237238479371	84
1	733	150.407278295347	85
1	741	152.248216087864	86
1	751	155.010125227163	87
1	759	156.684439455794	88
1	763	157.862901250585	89
1	771	159.537938648531	90
1	779	161.292334003415	91
1	797	162.57415687964	92
1	805	163.697833275243	93
1	811	165.659703558271	94
1	825	167.636300138159	95
1	833	169.61907400769	96
1	841	171.424073874364	97
1	849	173.280833252895	98
1	855	174.653049347209	99
1	863	176.196537882041	100
1	871	177.883444645955	101
1	883	179.407174007731	102
1	893	180.678512248886	103
1	905	183.91649675671	104
1	911	185.367504972355	105
1	917	186.589250259321	106
1	927	188.297165094079	107
1	937	189.434429099778	108
1	945	191.100799151456	109
1	949	192.139715861557	110
1	959	193.448630425448	111
1	967	194.919054621606	112
1	973	196.882512021306	113
1	981	197.982766501534	114
1	991	201.006888571909	115
1	1001	202.798166728966	116
1	1005	204.766871557174	117
1	1015	205.807453363044	118
1	1025	207.097744003647	119
1	1029	208.491859140301	120
1	1035	209.856245893269	121
1	1041	210.938840661239	122
1	1051	212.48989176374	123
1	1059	214.125092483771	124
1	1063	215.702846608037	125
1	1073	219.090901721809	126
1	1083	220.246451986744	127
1	1093	221.443032890018	128
1	1105	223.152625471418	129
1	1115	224.962827347949	130
1	1123	226.521803493492	131
1	1139	227.65184498542	132
1	1145	228.830001576308	133
1	1151	230.601681281265	134
1	1159	232.183090040229	135
1	1167	233.294855911628	136
1	1175	234.428525482869	137
1	1187	236.402518449122	138
1	1195	237.974780412244	139
1	1203	239.261271870716	140
2	5	0.160124635094	0
2	15	2.343358842275	1
2	23	3.551509812695	2
2	49	9.880837126079	3
2	65	13.24825110092	4
2	81	16.58967011584	5
2	89	18.11808750053	6
2	101	19.57238786404	7
2	107	21.0933803003	8
2	127	27.174106567771	9
2	131	27.214306089647	10
2	139	29.125378644682	11
2	143	29.165339970191	12
2	153	30.961695196457	13
2	161	32.14318827634	14
2	189	35.98331324239	15
2	197	37.663753816376	16
2	205	39.469850369433	17
2	221	44.018151994731	18
2	239	47.264820287689	19
2	243	47.3081153868	20
2	251	48.512684127622	21
2	261	52.072365149268	22
2	265	52.107385953574	23
2	279	56.558339421671	24
2	305	62.256172215614	25
2	313	63.308497020915	26
2	341	70.862569090828	27
2	375	78.704094185912	28
2	383	80.650208199702	29
2	393	82.491930357133	30
2	409	87.459101954211	31
2	437	92.451004732562	32
2	443	94.338432942041	33
2	453	96.00512525944	34
2	467	100.399232999638	35
2	471	100.429465921565	36
2	481	101.571087262481	37
2	485	101.621570412194	38
2	503	106.97792128823	39
2	515	109.804577667905	40
2	529	114.823151510576	41
2	537	116.287873736817	42
2	547	117.389534752924	43
2	551	117.483251666334	44
2	567	120.523543035182	45
2	571	120.565752455528	46
2	583	123.276410381866	47
2	591	124.648274193662	48
2	599	126.170248429225	49
2	613	129.224070550889	50
2	623	130.963418651722	51
2	637	134.43285110274	52
2	649	135.750149275007	53
2	659	137.363666885512	54
2	669	138.378705258116	55
2	693	144.194857484843	56
2	711	147.393096135879	57
2	719	149.267413159849	58
2	723	149.329349061112	59
2	727	149.372547805772	60
2	753	155.021838397151	61
2	773	159.554661553123	62
2	783	161.321229582493	63
2	787	161.36679041178	64
2	791	161.405809818766	65
2	815	165.691877521346	66
2	819	165.72423311693	67
2	843	171.449251413644	68
2	851	173.293928324617	69
2	873	177.903036522367	70
2	877	177.931799141008	71
2	887	179.458721762374	72
2	897	180.705338214948	73
2	913	185.380117144742	74
2	921	186.622328696858	75
2	931	188.323291633864	76
2	953	192.172178539675	77
2	961	193.466526080406	78
2	969	194.971527265367	79
2	975	196.89420727224	80
2	983	197.997097486197	81
2	995	201.041892862314	82
2	1007	204.782841508923	83
2	1019	205.828196666173	84
2	1031	208.528799194031	85
2	1037	209.868145002572	86
2	1045	210.964263647016	87
2	1065	215.72330422024	88
2	1077	219.122760081679	89
2	1087	220.273942159348	90
2	1095	221.455191339603	91
2	1099	221.487406254147	92
2	1109	223.177338151852	93
2	1119	225.006876860249	94
2	1125	226.533332155981	95
2	1129	226.566305793419	96
2	1133	226.599907814092	97
2	1141	227.669098744679	98
2	1147	228.850713669641	99
2	1153	230.628526984171	100
2	1179	234.463489445158	101
2	1183	234.491424424752	102
2	1189	236.415379361386	103
2	1197	237.999366420303	104
2	1205	239.285416375205	105
3	7	0.175870491842	0
3	29	4.795507067382	1
3	37	6.535488730354	2
3	57	11.849080806574	3
3	73	14.734516153145	4
3	91	18.134807058761	5
3	99	19.55853866243	6
3	117	24.69602652619	7
3	129	27.187170279687	8
3	141	29.15078384405	9
3	145	29.18322296149	10
3	163	32.159263098327	11
3	171	33.625318357802	12
3	179	34.690021208115	13
3	187	35.972718592388	14
3	195	37.606314411121	15
3	215	42.354855275932	16
3	229	45.780641066427	17
3	237	47.248232887376	18
3	241	47.277544102254	19
3	249	48.493458762383	20
3	263	52.083481833003	21
3	291	59.316447430326	22
3	303	62.207503031325	23
3	331	69.155943993935	24
3	339	70.83680312549	25
3	353	73.64911804626	26
3	365	77.569671274111	27
3	373	78.687826337629	28
3	391	82.473574456063	29
3	401	86.222832802823	30
3	411	87.474749814446	31
3	419	89.373637113468	32
3	427	90.568847625882	33
3	435	92.425341391388	34
3	445	94.358408278324	35
3	469	100.416494755894	36
3	479	101.54963755599	37
3	483	101.608828362428	38
3	493	104.962319221039	39
3	501	106.960309622215	40
3	505	106.996465473804	41
3	517	109.815863675811	42
3	545	117.368736443558	43
3	549	117.463586863537	44
3	553	117.498812777787	45
3	561	118.720147841586	46
3	569	120.543168800094	47
3	601	126.194542197344	48
3	621	130.927665953551	49
3	629	132.659958260757	50
3	639	134.45097942492	51
3	647	135.727618564896	52
3	651	135.793891787973	53
3	667	138.367364144586	54
3	677	139.659144819954	55
3	687	143.137465612832	56
3	695	144.22332532739	57
3	703	146.053216727764	58
3	721	149.300717786238	59
3	725	149.359611271695	60
3	729	149.393026386846	61
3	735	150.424878038105	62
3	743	152.276476576861	63
3	765	157.876335206088	64
3	775	159.572742950195	65
3	781	161.308726032714	66
3	785	161.336230771412	67
3	789	161.390588885261	68
3	799	162.595492801295	69
3	807	163.717100461419	70
3	813	165.675989635416	71
3	817	165.70335559971	72
3	827	167.64634277529	73
3	835	169.647714828258	74
3	857	174.665025184488	75
3	865	176.221818320768	76
3	875	177.921344171297	77
3	885	179.426565874664	78
3	895	180.692336550196	79
3	907	183.951254410844	80
3	919	186.600909749696	81
3	929	188.312042069202	82
3	939	189.446981938328	83
3	951	192.151898492114	84
3	977	196.92251620112	85
3	993	201.022892928004	86
3	1009	204.80966827598	87
3	1017	205.817516060553	88
3	1043	210.952673030055	89
3	1053	212.502061561528	90
3	1075	219.103939460557	91
3	1085	220.256677205428	92
3	1089	220.284003987887	93
3	1097	221.475808846399	94
3	1107	223.163082461559	95
3	1117	224.976076567559	96
3	1127	226.543721517468	97
3	1131	226.587084853294	98
3	1161	232.195750285828	99
3	1169	233.340478604577	100
3	1177	234.440828533191	101
3	1181	234.477921399099	102
4	17	2.359462230931	0
4	31	4.809165098273	1
4	39	6.549146803119	2
4	51	9.895585182208	3
4	59	11.862875377965	4
4	67	13.277950438941	5
4	75	14.758811449561	6
4	83	16.611969404308	7
4	93	18.153311945079	8
4	109	21.112460147958	9
4	119	24.719975439485	10
4	133	27.237264028693	11
4	147	29.195355788499	12
4	155	30.978032312638	13
4	165	32.177754972569	14
4	173	33.640664878822	15
4	181	34.718054245232	16
4	199	37.685529641138	17
4	207	39.496834993174	18
4	223	44.04912495748	19
4	231	45.851890568114	20
4	253	48.52831962561	21
4	267	52.152263043353	22
4	281	56.574819855207	23
4	293	59.33010209792	24
4	307	62.270837297121	25
4	315	63.319828012919	26
4	333	69.170902674695	27
4	343	70.889431330854	28
4	367	77.59792878552	29
4	377	78.718161589696	30
4	385	80.666112555391	31
4	403	86.233418341576	32
4	413	87.488181549323	33
4	421	89.389053790818	34
4	429	90.593207340469	35
4	447	94.376874423879	36
4	455	96.022781913015	37
4	473	100.446135087537	38
4	495	104.972720791615	39
4	519	109.826765588642	40
4	531	114.850315685771	41
4	539	116.304435406225	42
4	555	117.512266341399	43
4	573	120.57620239003	44
4	585	123.292779332117	45
4	593	124.671366554599	46
4	603	126.230419353048	47
4	615	129.234923850506	48
4	631	132.671915550528	49
4	641	134.466915654957	50
4	653	135.812537379415	51
4	661	137.379269725403	52
4	671	138.406023868419	53
4	679	139.688737048652	54
4	697	144.265732508395	55
4	705	146.070359881001	56
4	713	147.409182915496	57
4	737	150.456905880922	58
4	745	152.287051662008	59
4	755	155.044953627107	60
4	767	157.92502915469	61
4	793	161.419153924992	62
4	801	162.617002765135	63
4	821	165.734701032745	64
4	829	167.666372667217	65
4	837	169.661149232563	66
4	845	171.480179478082	67
4	859	174.704113541738	68
4	867	176.235945898101	69
4	879	177.961189757987	70
4	889	179.475455436467	71
4	899	180.726615953104	72
4	923	186.662215381714	73
4	933	188.340445222788	74
4	941	189.46097373222	75
4	955	192.215398185274	76
4	963	193.502759469179	77
4	985	198.026243319715	78
4	997	201.052269105356	79
4	1011	204.823403287837	80
4	1021	205.856800351313	81
4	1047	211.000347041554	82
4	1055	212.515086187392	83
4	1067	215.767742763437	84
4	1079	219.160532931458	85
4	1101	221.499163201988	86
4	1111	223.196148617627	87
4	1135	226.619894473046	88
4	1155	230.642335282894	89
4	1163	232.211193753587	90
4	1171	233.363829166592	91
4	1191	236.430376848081	92
4	1199	238.013702984746	93
4	1207	239.29842406396	94
5	18	2.369462230931	0
5	32	4.819165098273	1
5	40	6.559146803119	2
5	60	11.872875377965	3
5	68	13.287950438941	4
5	84	16.621969404308	5
5	94	18.163311945079	6
5	120	24.729975439485	7
5	134	27.247264028693	8
5	148	29.205355788499	9
5	156	30.988032312638	10
5	166	32.187754972569	11
5	182	34.728054245232	12
5	200	37.695529641138	13
5	208	39.506834993174	14
5	224	44.05912495748	15
5	232	45.861890568114	16
5	254	48.53831962561	17
5	268	52.162263043353	18
5	282	56.584819855207	19
5	294	59.34010209792	20
5	308	62.280837297121	21
5	344	70.899431330854	22
5	368	77.60792878552	23
5	378	78.728161589696	24
5	386	80.676112555391	25
5	404	86.243418341576	26
5	414	87.498181549323	27
5	422	89.399053790818	28
5	430	90.603207340469	29
5	448	94.386874423879	30
5	456	96.032781913015	31
5	474	100.456135087537	32
5	496	104.982720791615	33
5	520	109.836765588642	34
5	532	114.860315685771	35
5	540	116.314435406225	36
5	556	117.522266341399	37
5	574	120.58620239003	38
5	594	124.681366554599	39
5	604	126.240419353048	40
5	616	129.244923850506	41
5	632	132.681915550528	42
5	642	134.476915654957	43
5	654	135.822537379415	44
5	662	137.389269725403	45
5	672	138.416023868419	46
5	680	139.698737048652	47
5	698	144.275732508395	48
5	706	146.080359881001	49
5	714	147.419182915496	50
5	738	150.466905880922	51
5	746	152.297051662008	52
5	756	155.054953627107	53
5	768	157.93502915469	54
5	794	161.429153924992	55
5	802	162.627002765135	56
5	830	167.676372667217	57
5	838	169.671149232563	58
5	846	171.490179478082	59
5	860	174.714113541738	60
5	868	176.245945898101	61
5	880	177.971189757987	62
5	890	179.485455436467	63
5	900	180.736615953104	64
5	924	186.672215381714	65
5	934	188.350445222788	66
5	942	189.47097373222	67
5	956	192.225398185274	68
5	964	193.512759469179	69
5	986	198.036243319715	70
5	998	201.062269105356	71
5	1012	204.833403287837	72
5	1022	205.866800351313	73
5	1048	211.010347041554	74
5	1056	212.525086187392	75
5	1068	215.777742763437	76
5	1080	219.170532931458	77
5	1102	221.509163201988	78
5	1112	223.206148617627	79
5	1136	226.629894473046	80
5	1156	230.652335282894	81
5	1164	232.221193753587	82
5	1172	233.373829166592	83
5	1192	236.440376848081	84
5	1200	238.023702984746	85
5	1208	239.30842406396	86

