version 2
run General-1-20230921-23:10:37-8425
attr configname General
attr datetime 20230921-23:10:37
attr experiment General
attr inifile omnetpp.ini
attr iterationvars ""
attr iterationvarsf ""
attr measurement ""
attr network Network1
attr processid 8425
attr repetition 1
attr replication #1
attr resultdir results
attr runnumber 1
attr seedset 1
param Network1.node[*].transmissionTime "uniform(1s, 2s)"
param Network1.node[*].delayTime "uniform(0.01s, 0.2s)"
param Network1.node[*].processingTime exponential(0.01s)
param Network1.node[*].lossProbability 0.1

vector 0 Network1.node[0] txVector ETV
vector 1 Network1.node[1] txVector ETV
vector 2 Network1.node[3] txVector ETV
vector 3 Network1.node[4] txVector ETV
vector 4 Network1.node[5] rxVector ETV
vector 5 Network1.node[2] txVector ETV
0	1	0.089234179703	0
0	9	2.086418987836	1
0	17	3.272679199117	2
0	25	4.797227361823	3
0	35	6.355917189155	4
0	39	8.232306335239	5
0	41	10.06190969993	6
0	49	11.334959677305	7
0	57	12.868124966627	8
0	65	13.902296276648	9
0	67	15.005522288733	10
0	75	16.453415813275	11
0	83	17.537038818585	12
0	91	19.111156425324	13
0	99	21.061094558916	14
0	107	22.575983666467	15
0	119	24.468119535014	16
0	127	26.091791741202	17
0	135	27.973133570167	18
0	147	29.423045703328	19
0	157	31.001679635259	20
0	161	32.833372224706	21
0	171	34.005712735352	22
0	173	35.928737276119	23
0	177	37.640262032977	24
0	179	39.036575321226	25
0	181	40.143940629555	26
0	189	41.653750907747	27
0	197	42.777924224852	28
0	207	44.590919196491	29
0	213	46.019301605995	30
0	231	47.935711479166	31
0	239	49.306845374524	32
0	243	51.135826271844	33
0	245	52.78694683721	34
0	253	53.826630339145	35
0	265	55.406375562891	36
0	275	56.480633997012	37
0	281	58.057218214849	38
0	289	59.785229855103	39
0	297	61.019591941384	40
0	305	62.027594652146	41
0	311	63.953776079116	42
0	317	65.127731744784	43
0	325	66.149256552921	44
0	333	67.652332462722	45
0	343	69.53116445232	46
0	347	71.021417974614	47
0	357	72.974249099035	48
0	361	74.165509369111	49
0	363	75.219418643628	50
0	365	76.63961232419	51
0	369	78.318681161505	52
0	377	80.186198616288	53
0	391	81.760910124173	54
0	397	83.431698915204	55
0	407	84.833178500766	56
0	409	86.259879512601	57
0	425	87.603225752134	58
0	429	88.647498049429	59
0	431	90.216356045455	60
0	435	91.682065921258	61
0	445	93.454916352061	62
0	455	95.115248248567	63
0	463	96.25452829793	64
0	471	97.754112468454	65
0	479	98.911692096739	66
0	487	100.064363746093	67
0	493	101.20905565273	68
0	497	102.519383490905	69
0	507	104.364093100307	70
0	519	106.015397433312	71
0	527	107.241859047096	72
0	537	109.232330828095	73
0	545	111.226243846938	74
0	553	112.7601781803	75
0	561	114.45285590075	76
0	569	115.939598613307	77
0	577	116.996528047258	78
0	585	118.200202375771	79
0	595	119.74115418422	80
0	599	120.962586919898	81
0	609	122.419564827233	82
0	617	124.329201775491	83
0	621	125.407588675506	84
0	639	126.991548463823	85
0	641	128.985913259564	86
0	647	130.639603015156	87
0	655	132.248416104009	88
0	663	134.163690422084	89
0	671	135.718749774508	90
0	679	136.968600452533	91
0	687	138.616324307285	92
0	693	139.930791312717	93
0	697	141.443084010277	94
0	709	142.748655624343	95
0	717	144.201509124022	96
0	725	146.021113781612	97
0	733	147.952974894903	98
0	743	149.359677768666	99
0	751	150.799082205286	100
0	753	152.02789587819	101
0	761	153.691998439729	102
0	771	154.799662313312	103
0	773	155.993122884426	104
0	781	157.061553944722	105
0	787	158.82902881911	106
0	795	160.305911156237	107
0	803	161.745699222786	108
0	809	163.730082678264	109
0	815	165.484974138094	110
0	823	166.98949330708	111
0	831	168.921750481129	112
0	835	170.836539167334	113
0	843	171.941207777132	114
0	853	173.519707358797	115
0	861	175.267028171225	116
0	869	176.30311786186	117
0	877	177.524514561408	118
0	883	178.709269982419	119
0	891	179.877356313291	120
0	901	181.181874298845	121
0	911	183.157917850307	122
0	913	184.346662921953	123
0	921	185.990558564785	124
0	925	187.29710918747	125
0	937	189.028715658357	126
0	939	190.228680661536	127
0	947	191.304849883198	128
0	955	192.511303941376	129
0	965	194.404620280146	130
0	977	195.474016243947	131
0	981	196.650565276278	132
0	991	198.578622914275	133
0	993	199.99422701833	134
0	1001	201.085785274749	135
0	1009	202.86631482782	136
0	1017	204.141898715293	137
0	1019	205.262665903319	138
0	1027	206.482949890785	139
0	1035	207.605103964808	140
0	1047	209.43323932647	141
0	1055	210.983778567177	142
0	1063	212.416760078056	143
0	1071	213.798795635702	144
0	1079	214.993261446135	145
0	1087	216.850185561117	146
0	1091	218.172315071693	147
0	1099	219.182943011757	148
0	1113	220.660805013154	149
0	1121	221.850356709335	150
0	1125	223.559174009256	151
0	1127	225.353752367089	152
0	1135	226.860832291779	153
0	1143	228.51237742266	154
0	1155	229.919299419861	155
0	1159	231.315302634503	156
0	1167	232.672813799124	157
0	1171	233.761020499406	158
0	1179	235.616376916537	159
0	1187	237.176856424319	160
0	1195	238.190623941491	161
1	3	0.126198958082	0
1	11	2.100658752624	1
1	19	3.288539233762	2
1	27	4.808740091	3
1	37	6.388417747847	4
1	43	10.072520406112	5
1	51	11.356732243214	6
1	59	12.887907425443	7
1	69	15.039446894898	8
1	77	16.488288267222	9
1	85	17.548625594369	10
1	93	19.127950043561	11
1	101	21.100025369705	12
1	109	22.590725138008	13
1	121	24.492020247348	14
1	129	26.101909119339	15
1	137	27.991770306483	16
1	149	29.433136191456	17
1	159	31.019694198732	18
1	163	32.844847203709	19
1	175	35.940064261655	20
1	183	40.155017987704	21
1	191	41.66702461707	22
1	199	42.791345748255	23
1	209	44.605411868903	24
1	215	46.044532302956	25
1	233	47.946224602475	26
1	241	49.31855078348	27
1	247	52.813760278257	28
1	255	53.841412974443	29
1	267	55.417378399852	30
1	277	56.508937661908	31
1	283	58.074615082761	32
1	291	59.804821272589	33
1	299	61.055676349303	34
1	307	62.062694858246	35
1	313	63.965126599117	36
1	319	65.167291133337	37
1	327	66.180944952983	38
1	335	67.680958646435	39
1	345	69.550305142047	40
1	349	71.033882009844	41
1	359	72.993136825939	42
1	367	76.674696342692	43
1	371	78.344106538185	44
1	379	80.206089279192	45
1	393	81.776904396544	46
1	399	83.445517142517	47
1	411	86.285856523541	48
1	427	87.61909216904	49
1	433	90.230552024144	50
1	437	91.704296870748	51
1	447	93.466991251414	52
1	457	95.133020159559	53
1	465	96.277569385317	54
1	473	97.77340377751	55
1	481	98.931415582632	56
1	489	100.074858800418	57
1	495	101.224046933596	58
1	499	102.537114935975	59
1	509	104.386250753898	60
1	521	106.036555055208	61
1	529	107.255429344843	62
1	539	109.250228968624	63
1	547	111.244854286424	64
1	555	112.781920448044	65
1	563	114.466083411385	66
1	571	115.956701877122	67
1	579	117.007455959659	68
1	587	118.242250703979	69
1	597	119.754261262518	70
1	601	120.977069728165	71
1	611	122.432813897476	72
1	619	124.339386803131	73
1	623	125.426110596524	74
1	643	128.996294723044	75
1	649	130.650725873844	76
1	657	132.259989173279	77
1	665	134.193436888116	78
1	673	135.730654483247	79
1	681	136.987409173438	80
1	689	138.650490004833	81
1	695	139.968741534009	82
1	699	141.459706729043	83
1	711	142.768552549597	84
1	719	144.229762566883	85
1	727	146.058739116729	86
1	735	147.96738183029	87
1	745	149.371426260774	88
1	755	152.044772502463	89
1	763	153.708025004214	90
1	775	156.024296893692	91
1	783	157.088940180417	92
1	789	158.839161053108	93
1	797	160.325418792085	94
1	805	161.758186839769	95
1	811	163.746316236415	96
1	817	165.506178086288	97
1	825	167.005485484807	98
1	833	168.942088874517	99
1	837	170.850626541246	100
1	845	171.95441147972	101
1	855	173.533126668321	102
1	863	175.2955819707	103
1	871	176.315527273545	104
1	879	177.559859398045	105
1	885	178.730845760863	106
1	893	179.905365569576	107
1	903	181.193615852526	108
1	915	184.370699603932	109
1	923	186.026906602027	110
1	927	187.336169647037	111
1	941	190.260979943806	112
1	949	191.315642358878	113
1	957	192.530476349037	114
1	967	194.422201582358	115
1	979	195.50381883678	116
1	983	196.664655074882	117
1	995	200.007255627398	118
1	1003	201.100483326322	119
1	1011	202.876953176356	120
1	1021	205.276262651019	121
1	1029	206.502883536811	122
1	1037	207.620661290834	123
1	1049	209.449220204758	124
1	1057	211.017781868451	125
1	1065	212.433342655808	126
1	1073	213.827630396455	127
1	1081	215.015418503679	128
1	1089	216.889401533919	129
1	1093	218.183205131263	130
1	1101	219.194385626214	131
1	1115	220.704325920488	132
1	1123	221.862019775173	133
1	1129	225.379445938889	134
1	1137	226.872383714686	135
1	1145	228.559355553896	136
1	1157	229.942391179007	137
1	1161	231.32931154447	138
1	1169	232.70254971685	139
1	1173	233.792947625944	140
1	1181	235.632863390928	141
1	1189	237.192247371551	142
1	1197	238.215393622593	143
2	5	0.139799085561	0
2	31	4.878310689363	1
2	45	10.083555659634	2
2	61	12.911697263054	3
2	71	15.072815572897	4
2	95	19.13846248661	5
2	103	21.131491912974	6
2	113	22.617015210246	7
2	139	28.006547492256	8
2	143	28.05350334148	9
2	151	29.447556493225	10
2	165	32.856978592315	11
2	185	40.172757896226	12
2	193	41.685465868076	13
2	201	42.817801850967	14
2	219	46.087637176754	15
2	223	46.112859744779	16
2	227	46.136782794752	17
2	235	47.95896696802	18
2	249	52.832173303817	19
2	257	53.85384197725	20
2	261	53.886324100132	21
2	269	55.428066933833	22
2	279	56.521993363379	23
2	285	58.108454754403	24
2	315	63.986941708763	25
2	321	65.181358570897	26
2	329	66.195172133687	27
2	339	67.742596786437	28
2	353	71.07303366086	29
2	373	78.390520217402	30
2	383	80.251988956537	31
2	387	80.284335648454	32
2	403	83.510180914394	33
2	415	86.344038973882	34
2	419	86.383508151244	35
2	439	91.754935286201	36
2	451	93.499727819095	37
2	467	96.294610737215	38
2	491	100.100243751257	39
2	503	102.584423797115	40
2	511	104.401464637719	41
2	515	104.456737925301	42
2	523	106.062480306501	43
2	531	107.26988534798	44
2	549	111.255162999891	45
2	557	112.810334782191	46
2	581	117.022252720222	47
2	591	118.277589744901	48
2	605	121.01202253967	49
2	625	125.436392362528	50
2	629	125.513517755928	51
2	633	125.580273261342	52
2	659	132.279542197976	53
2	667	134.216597126648	54
2	675	135.762670552254	55
2	691	138.685875340327	56
2	703	141.4836333198	57
2	713	142.782608789768	58
2	739	147.990378648991	59
2	747	149.38996456432	60
2	767	153.779761953112	61
2	785	157.108743329725	62
2	799	160.335528276597	63
2	813	163.757820178497	64
2	819	165.520571019308	65
2	839	170.878369641369	66
2	849	171.995135714131	67
2	857	173.546163881887	68
2	865	175.309272944911	69
2	873	176.328711420293	70
2	889	178.78306694265	71
2	897	179.947229775555	72
2	907	181.246121088896	73
2	929	187.372129303288	74
2	933	187.406534988363	75
2	959	192.582957478913	76
2	969	194.445675301735	77
2	973	194.471144737405	78
2	987	196.692159078132	79
2	999	200.047789160003	80
2	1005	201.112431430996	81
2	1031	206.516801208377	82
2	1039	207.634976110367	83
2	1043	207.681009067103	84
2	1067	212.451858746849	85
2	1075	213.870564005945	86
2	1083	215.025498148784	87
2	1095	218.199000295535	88
2	1103	219.218013797396	89
2	1107	219.25540654349	90
2	1117	220.716786207117	91
2	1149	228.591052026137	92
2	1183	235.652249551112	93
2	1199	238.238008611256	94
3	7	0.152492125138	0
3	15	2.153509106567	1
3	23	3.33334659484	2
3	33	4.889284621754	3
3	47	10.104692535912	4
3	55	11.396260592548	5
3	63	12.927605597081	6
3	73	15.084208521957	7
3	81	16.520154613808	8
3	89	17.572729460504	9
3	97	19.148926546808	10
3	105	21.142970820977	11
3	117	22.652261043273	12
3	125	24.549049746153	13
3	133	26.147092036844	14
3	145	28.073104328813	15
3	155	29.482180345785	16
3	169	32.884759180723	17
3	187	40.217074851497	18
3	205	42.857117439902	19
3	229	46.148957261349	20
3	237	47.971253029011	21
3	251	52.849762465923	22
3	263	53.900945791348	23
3	273	55.451218237976	24
3	287	58.130072138044	25
3	295	59.838023825293	26
3	303	61.082575456145	27
3	323	65.193296800472	28
3	331	66.209550746411	29
3	341	67.761202216451	30
3	355	71.091657777594	31
3	375	78.402237072563	32
3	389	80.294382390654	33
3	405	83.531722838019	34
3	423	86.431658708183	35
3	443	91.799028590439	36
3	453	93.518705253696	37
3	461	95.161805331558	38
3	469	96.323694021419	39
3	477	97.810103545098	40
3	485	98.954675404095	41
3	517	104.469744901283	42
3	535	107.331512245065	43
3	543	109.291183820439	44
3	551	111.278114325337	45
3	559	112.829047415948	46
3	567	114.514523868756	47
3	575	115.993139694936	48
3	583	117.04774466596	49
3	593	118.292243292202	50
3	607	121.036555918713	51
3	615	122.470300615098	52
3	637	125.606323526859	53
3	653	130.723012729062	54
3	661	132.299283936431	55
3	669	134.310333171099	56
3	677	135.774258075744	57
3	685	137.06389510686	58
3	707	141.530498569649	59
3	715	142.801206852619	60
3	723	144.28507689149	61
3	731	146.086087309336	62
3	741	148.017325966325	63
3	749	149.405058720468	64
3	759	152.075189662599	65
3	779	156.112384432375	66
3	793	158.887024218194	67
3	801	160.349282699557	68
3	821	165.530802836886	69
3	829	167.050655652173	70
3	841	170.894496396896	71
3	851	172.00524401642	72
3	859	173.572650785444	73
3	867	175.319864578721	74
3	875	176.343444833807	75
3	899	179.957933663746	76
3	909	181.260108257091	77
3	919	184.425842164963	78
3	935	187.421561857841	79
3	945	190.297135824621	80
3	953	191.348465556822	81
3	963	192.642923298691	82
3	975	194.49984777337	83
3	989	196.745841238246	84
3	1007	201.131930196073	85
3	1015	202.924711078423	86
3	1025	205.301609605132	87
3	1045	207.70086696518	88
3	1053	209.505289700535	89
3	1061	211.065216293103	90
3	1069	212.486873872876	91
3	1077	213.88833496805	92
3	1085	215.043664379908	93
3	1097	218.228629458857	94
3	1111	219.291797112894	95
3	1119	220.728344741438	96
3	1133	225.405316448643	97
3	1141	226.91922859983	98
3	1153	228.624030368916	99
3	1165	231.366476261376	100
3	1177	233.862848404232	101
3	1193	237.230860593888	102
3	1203	238.266476245916	103
4	8	0.162492125138	0
4	16	2.163509106567	1
4	24	3.34334659484	2
4	34	4.899284621754	3
4	48	10.114692535912	4
4	64	12.937605597081	5
4	82	16.530154613808	6
4	90	17.582729460504	7
4	98	19.158926546808	8
4	106	21.152970820977	9
4	118	22.662261043273	10
4	126	24.559049746153	11
4	146	28.083104328813	12
4	156	29.492180345785	13
4	170	32.894759180723	14
4	188	40.227074851497	15
4	206	42.867117439902	16
4	230	46.158957261349	17
4	238	47.981253029011	18
4	252	52.859762465923	19
4	264	53.910945791348	20
4	274	55.461218237976	21
4	288	58.140072138044	22
4	296	59.848023825293	23
4	304	61.092575456145	24
4	324	65.203296800472	25
4	332	66.219550746411	26
4	342	67.771202216451	27
4	356	71.101657777594	28
4	376	78.412237072563	29
4	390	80.304382390654	30
4	406	83.541722838019	31
4	424	86.441658708183	32
4	444	91.809028590439	33
4	454	93.528705253696	34
4	462	95.171805331558	35
4	470	96.333694021419	36
4	478	97.820103545098	37
4	486	98.964675404095	38
4	518	104.479744901283	39
4	536	107.341512245065	40
4	552	111.288114325337	41
4	560	112.839047415948	42
4	568	114.524523868756	43
4	584	117.05774466596	44
4	608	121.046555918713	45
4	616	122.480300615098	46
4	638	125.616323526859	47
4	654	130.733012729062	48
4	662	132.309283936431	49
4	670	134.320333171099	50
4	678	135.784258075744	51
4	686	137.07389510686	52
4	708	141.540498569649	53
4	716	142.811206852619	54
4	742	148.027325966325	55
4	750	149.415058720468	56
4	760	152.085189662599	57
4	780	156.122384432375	58
4	794	158.897024218194	59
4	802	160.359282699557	60
4	822	165.540802836886	61
4	830	167.060655652173	62
4	842	170.904496396896	63
4	852	172.01524401642	64
4	860	173.582650785444	65
4	868	175.329864578721	66
4	900	179.967933663746	67
4	910	181.270108257091	68
4	920	184.435842164963	69
4	936	187.431561857841	70
4	946	190.307135824621	71
4	954	191.358465556822	72
4	964	192.652923298691	73
4	976	194.50984777337	74
4	990	196.755841238246	75
4	1008	201.141930196073	76
4	1016	202.934711078423	77
4	1026	205.311609605132	78
4	1046	207.71086696518	79
4	1054	209.515289700535	80
4	1062	211.075216293103	81
4	1078	213.89833496805	82
4	1098	218.238629458857	83
4	1112	219.301797112894	84
4	1134	225.415316448643	85
4	1142	226.92922859983	86
4	1154	228.634030368916	87
4	1166	231.376476261376	88
4	1178	233.872848404232	89
4	1194	237.240860593888	90
4	1204	238.276476245916	91
5	13	2.138075712781	0
5	21	3.298816930038	1
5	29	4.83380841849	2
5	53	11.368265155258	3
5	79	16.501374555305	4
5	87	17.561649883534	5
5	111	22.602532616292	6
5	115	22.640910690836	7
5	123	24.516427037203	8
5	131	26.121629683672	9
5	141	28.039917137407	10
5	153	29.472020868459	11
5	167	32.867661382581	12
5	195	41.703699115136	13
5	203	42.833368972956	14
5	211	44.616705480773	15
5	217	46.067014649773	16
5	221	46.098384135098	17
5	225	46.125132430769	18
5	259	53.874905384813	19
5	271	55.439068538998	20
5	293	59.819889795816	21
5	301	61.072331487923	22
5	309	62.082090630655	23
5	337	67.724692563584	24
5	351	71.060351358254	25
5	381	80.228125142325	26
5	385	80.262360469997	27
5	395	81.789651628998	28
5	401	83.463760161287	29
5	413	86.323170561042	30
5	417	86.354204971698	31
5	421	86.413160966794	32
5	441	91.76823724244	33
5	449	93.483281339223	34
5	459	95.145992344192	35
5	475	97.784479265023	36
5	483	98.943114179915	37
5	501	102.556913379492	38
5	505	102.598301795219	39
5	513	104.411816467185	40
5	525	106.082032309696	41
5	533	107.287684592964	42
5	541	109.276787831958	43
5	565	114.479123871447	44
5	573	115.979610996089	45
5	589	118.255232108264	46
5	603	120.997115123216	47
5	613	122.460187170872	48
5	627	125.489776528777	49
5	631	125.563770995324	50
5	635	125.591175315642	51
5	645	129.015931522996	52
5	651	130.690924849938	53
5	683	137.037817653751	54
5	701	141.469983393397	55
5	705	141.513258037545	56
5	721	144.245322100696	57
5	729	146.073500893514	58
5	737	147.979302711753	59
5	757	152.05673330042	60
5	765	153.755317465095	61
5	769	153.790091590184	62
5	777	156.071326690214	63
5	791	158.863927506371	64
5	807	161.778279597887	65
5	827	167.026647236248	66
5	847	171.980790436035	67
5	881	177.585942610262	68
5	887	178.765775176561	69
5	895	179.924986258159	70
5	905	181.230942554547	71
5	917	184.402021995018	72
5	931	187.382707088596	73
5	943	190.278545019735	74
5	951	191.334048493135	75
5	961	192.632464478775	76
5	971	194.458703399173	77
5	985	196.67981715017	78
5	997	200.030306490684	79
5	1013	202.901865132767	80
5	1023	205.288230909925	81
5	1033	206.533041767761	82
5	1041	207.647479742728	83
5	1051	209.465326032744	84
5	1059	211.048190364432	85
5	1105	219.234777585968	86
5	1109	219.276909754954	87
5	1131	225.39009955655	88
5	1139	226.88427844077	89
5	1147	228.570937598394	90
5	1151	228.604365397985	91
5	1163	231.339959171907	92
5	1175	233.830000456649	93
5	1185	235.667193717364	94
5	1191	237.205730932907	95
5	1201	238.25355404188	96

