version 2
run General-0-20230921-23:10:37-8425
attr configname General
attr datetime 20230921-23:10:37
attr experiment General
attr inifile omnetpp.ini
attr iterationvars ""
attr iterationvarsf ""
attr measurement ""
attr network Network1
attr processid 8425
attr repetition 0
attr replication #0
attr resultdir results
attr runnumber 0
attr seedset 0
param Network1.node[*].transmissionTime "uniform(1s, 2s)"
param Network1.node[*].delayTime "uniform(0.01s, 0.2s)"
param Network1.node[*].processingTime exponential(0.01s)
param Network1.node[*].lossProbability 0.1

vector 0 Network1.node[0] txVector ETV
vector 1 Network1.node[1] txVector ETV
vector 2 Network1.node[3] txVector ETV
vector 3 Network1.node[4] txVector ETV
vector 4 Network1.node[5] rxVector ETV
vector 5 Network1.node[2] txVector ETV
0	1	0.114274565438	0
0	9	1.707119181827	1
0	17	3.144706391804	2
0	23	4.624683563206	3
0	25	6.272855439763	4
0	33	7.641096977125	5
0	45	9.102576339924	6
0	51	10.288908684467	7
0	61	11.61304968859	8
0	71	13.515398266799	9
0	75	15.123228933503	10
0	87	16.561830446896	11
0	99	18.185340552897	12
0	107	20.023285459568	13
0	117	21.47444467347	14
0	127	23.354920566621	15
0	135	25.276078178621	16
0	143	26.992405376471	17
0	145	28.362213472211	18
0	153	29.508655235478	19
0	161	31.084812571368	20
0	179	32.53401030328	21
0	193	33.928879595435	22
0	205	35.021253482046	23
0	215	36.457118401377	24
0	223	38.455965404239	25
0	233	40.235016422419	26
0	243	41.65509179009	27
0	255	43.405091037814	28
0	259	45.333172330473	29
0	263	47.116816578506	30
0	277	48.694045163764	31
0	285	49.880238169179	32
0	287	50.965533736235	33
0	295	52.021952070835	34
0	305	53.046630799611	35
0	313	54.263527780612	36
0	325	56.167952757868	37
0	333	58.120744416098	38
0	341	59.434436813536	39
0	351	60.808606792082	40
0	359	61.940674901781	41
0	367	63.105633773216	42
0	373	65.009353512739	43
0	379	66.971289896247	44
0	389	67.987719527519	45
0	397	69.473347120992	46
0	405	71.352216859887	47
0	413	72.645237143923	48
0	425	74.425663793067	49
0	429	75.936982775413	50
0	439	77.343103262902	51
0	445	78.644934137192	52
0	457	80.597804808364	53
0	463	82.018344270139	54
0	467	83.288672173702	55
0	475	84.765149377593	56
0	481	86.048668226068	57
0	489	87.105516298981	58
0	497	88.175375316366	59
0	501	89.219987613689	60
0	513	90.689485919038	61
0	525	92.225663418491	62
0	529	93.31792358852	63
0	539	94.776527545024	64
0	541	96.533306191285	65
0	555	98.169367247802	66
0	561	99.745118405047	67
0	563	100.904532868956	68
0	567	102.533431308419	69
0	573	104.470177785568	70
0	579	105.777163838111	71
0	585	107.309013020089	72
0	589	108.918190598097	73
0	591	110.372352997149	74
0	593	111.69905388386	75
0	597	112.931798016029	76
0	599	114.45416854865	77
0	607	115.967243415146	78
0	619	117.098298649845	79
0	627	118.905321487534	80
0	635	120.146740105777	81
0	645	121.644418084371	82
0	647	123.04195158261	83
0	661	124.780634240789	84
0	667	126.270143562771	85
0	675	128.186870577123	86
0	683	129.935658829596	87
0	691	131.287529393409	88
0	703	133.227739086917	89
0	711	134.675254955964	90
0	713	136.64304962855	91
0	723	138.189934525249	92
0	733	139.645378671662	93
0	747	141.395973690628	94
0	755	143.076488172944	95
0	761	144.624849509524	96
0	773	146.259906304611	97
0	783	147.602517286858	98
0	787	149.274474425085	99
0	795	150.50155839611	100
0	801	152.198040824692	101
0	809	153.988880988053	102
0	817	155.449887816637	103
0	831	156.583349285956	104
0	843	157.61938310818	105
0	849	159.200270382764	106
0	855	160.56157605963	107
0	857	162.079188161839	108
0	867	163.553856146366	109
0	877	164.556955689641	110
0	879	165.757320012275	111
0	893	167.683022160858	112
0	895	169.037528220408	113
0	905	170.694547996467	114
0	917	172.632183218684	115
0	919	173.694819225075	116
0	929	174.936720930349	117
0	945	176.526415646618	118
0	955	177.616648628685	119
0	963	179.08983867949	120
0	969	180.207154246123	121
0	977	181.878537729691	122
0	987	183.253290432581	123
0	993	185.08660624277	124
0	1001	186.648183524219	125
0	1007	188.607325774228	126
0	1015	190.142242628924	127
0	1023	191.990582780756	128
0	1031	193.07589370765	129
0	1035	194.29855164055	130
0	1043	195.858234039817	131
0	1047	197.285177452799	132
0	1055	199.066657053383	133
0	1063	200.937759582961	134
0	1073	202.438822751243	135
0	1081	203.963202556905	136
0	1089	205.572191172589	137
0	1097	207.53858114158	138
0	1101	209.475198251272	139
0	1109	210.847117002432	140
0	1117	212.211579686341	141
0	1127	213.588320953383	142
0	1137	215.511077561959	143
0	1145	216.937981921326	144
0	1147	218.185027138641	145
0	1155	219.221588127393	146
0	1165	220.339113771295	147
0	1167	221.379106576865	148
0	1175	223.018811677893	149
0	1185	224.47439023767	150
0	1193	225.707563993366	151
0	1197	227.234471439229	152
0	1207	228.402513957893	153
0	1217	229.559736057495	154
0	1229	230.617056676264	155
0	1241	232.090199653602	156
0	1245	233.246853141191	157
0	1253	234.957308895497	158
0	1261	236.196645899054	159
0	1271	237.344447233558	160
0	1279	238.670716863202	161
1	3	0.142870607559	0
1	11	1.739354426047	1
1	19	3.159695111894	2
1	27	6.31435713905	3
1	35	7.666262336865	4
1	47	9.12592924177	5
1	53	10.300530049361	6
1	63	11.624095300848	7
1	73	13.529329392372	8
1	77	15.177773901965	9
1	89	16.575955459195	10
1	101	18.19635090065	11
1	109	20.033487360849	12
1	119	21.509483791301	13
1	129	23.365788271444	14
1	137	25.289494720291	15
1	147	28.380644302532	16
1	155	29.527621144186	17
1	163	31.1332426372	18
1	181	32.553654838935	19
1	195	33.943249875573	20
1	207	35.053502628618	21
1	217	36.468737102244	22
1	225	38.485985269194	23
1	235	40.245535547941	24
1	245	41.669237915517	25
1	257	43.427279005847	26
1	261	45.350104328168	27
1	265	47.129533259209	28
1	279	48.732935919683	29
1	289	50.982224873472	30
1	297	52.032648247546	31
1	307	53.067509843947	32
1	315	54.283906281367	33
1	327	56.189583890702	34
1	335	58.162315371512	35
1	343	59.450665106634	36
1	353	60.831224918817	37
1	361	61.952008308014	38
1	369	63.116504859049	39
1	375	65.022808708576	40
1	381	67.007815481402	41
1	391	68.03565976535	42
1	399	69.490125141013	43
1	407	71.381117876868	44
1	415	72.697255738185	45
1	427	74.438203906851	46
1	431	75.955404138441	47
1	441	77.368029584544	48
1	447	78.655074603104	49
1	459	80.615954991673	50
1	465	82.029753948983	51
1	469	83.305365202422	52
1	477	84.779928557468	53
1	483	86.070608359774	54
1	491	87.115613653074	55
1	499	88.201459494857	56
1	503	89.251418610693	57
1	515	90.710923872829	58
1	527	92.259803582796	59
1	531	93.340803208271	60
1	543	96.546050826505	61
1	557	98.19655794092	62
1	565	100.919615063497	63
1	569	102.549362124392	64
1	575	104.481453521306	65
1	581	105.805830242813	66
1	587	107.320049728455	67
1	595	111.718585109243	68
1	601	114.474661970309	69
1	609	115.977364507597	70
1	621	117.118515833319	71
1	629	118.926183520646	72
1	637	120.16232337367	73
1	649	123.057913301524	74
1	663	124.812846382621	75
1	669	126.281351876734	76
1	677	128.19958613504	77
1	685	129.959067846842	78
1	693	131.311422978478	79
1	705	133.249648901451	80
1	715	136.656263031579	81
1	725	138.205071381382	82
1	735	139.659435935101	83
1	749	141.415712476543	84
1	757	143.089672103105	85
1	763	144.63841116734	86
1	775	146.279641030047	87
1	785	147.642249370253	88
1	789	149.290541549177	89
1	797	150.528361220111	90
1	803	152.209063842502	91
1	811	154.016415469236	92
1	819	155.499302403483	93
1	833	156.595270241717	94
1	845	157.630959828708	95
1	851	159.234460896706	96
1	859	162.091226015661	97
1	869	163.572951853415	98
1	881	165.771019804073	99
1	897	169.05809263035	100
1	907	170.715696665008	101
1	921	173.710480520592	102
1	931	174.960401470563	103
1	947	176.546070004615	104
1	957	177.633183161282	105
1	965	179.103002953402	106
1	971	180.221381144004	107
1	979	181.899373211574	108
1	989	183.278242743762	109
1	995	185.101708834274	110
1	1003	186.659273842855	111
1	1009	188.622505008679	112
1	1017	190.166968757549	113
1	1025	192.00308531356	114
1	1033	193.090505965426	115
1	1037	194.32339978129	116
1	1045	195.871824996645	117
1	1049	197.309081346071	118
1	1057	199.087671014166	119
1	1065	200.952481870447	120
1	1075	202.450071359821	121
1	1083	203.981854047494	122
1	1091	205.589276533343	123
1	1099	207.561389104811	124
1	1103	209.485212094398	125
1	1111	210.868134621605	126
1	1119	212.25543709537	127
1	1129	213.601803439725	128
1	1139	215.539583418425	129
1	1149	218.200251431074	130
1	1157	219.268836871134	131
1	1169	221.394354181306	132
1	1177	223.03797941661	133
1	1187	224.485238974908	134
1	1195	225.724251980208	135
1	1199	227.245137490601	136
1	1209	228.416701551416	137
1	1219	229.570570537671	138
1	1231	230.648451451494	139
1	1243	232.111723763796	140
1	1247	233.258801202156	141
1	1255	234.977274988289	142
1	1263	236.209615369642	143
1	1273	237.358253142551	144
1	1281	238.681187921577	145
2	5	0.160742618959	0
2	21	3.170431965449	1
2	37	7.689014613887	2
2	41	7.724775557493	3
2	49	9.144332588826	4
2	57	10.353414662877	5
2	65	11.645084425524	6
2	81	15.210111301553	7
2	91	16.596636181166	8
2	95	16.636302674076	9
2	113	20.061265657878	10
2	121	21.531275686572	11
2	125	21.578715681301	12
2	149	28.40393188127	13
2	165	31.146772838533	14
2	169	31.19337505746	15
2	173	31.22892627522	16
2	183	32.563848636748	17
2	187	32.599865068168	18
2	197	33.961790672929	19
2	201	34.022162132733	20
2	211	35.082259523649	21
2	229	38.514741946667	22
2	239	40.305258446952	23
2	249	41.691774911121	24
2	269	47.160313733805	25
2	273	47.197949369402	26
2	299	52.049160554865	27
2	317	54.311687714735	28
2	321	54.334884014803	29
2	329	56.21513052008	30
2	347	59.492669078583	31
2	355	60.847445288008	32
2	363	61.990214667498	33
2	377	65.044117893368	34
2	383	67.035715377447	35
2	393	68.054985883903	36
2	409	71.405960301695	37
2	419	72.727275151951	38
2	435	76.013103383903	39
2	443	77.379450839658	40
2	451	78.711240499329	41
2	461	80.630719777499	42
2	471	83.321455846975	43
2	479	84.797048638124	44
2	485	86.099399544116	45
2	493	87.130247553349	46
2	505	89.270035285611	47
2	509	89.292308274367	48
2	517	90.728672296624	49
2	521	90.755401207119	50
2	533	93.351784403497	51
2	547	96.598131520637	52
2	551	96.644631546116	53
2	559	98.255392930823	54
2	577	104.495865069413	55
2	583	105.842322125435	56
2	603	114.48756470446	57
2	611	116.027340142364	58
2	615	116.084403112566	59
2	623	117.129191174888	60
2	631	118.946232853737	61
2	639	120.184584695792	62
2	653	123.099594266655	63
2	657	123.144417999368	64
2	679	128.216596590133	65
2	687	129.99764210032	66
2	697	131.384885698496	67
2	709	133.311168448291	68
2	717	136.669256561608	69
2	729	138.250684006076	70
2	737	139.703585184125	71
2	741	139.728088155464	72
2	751	141.448048875054	73
2	765	144.653074137604	74
2	769	144.682177618368	75
2	777	146.324334968435	76
2	799	150.548819473039	77
2	805	152.266327794471	78
2	823	155.554578070335	79
2	827	155.593580389988	80
2	837	156.621668128602	81
2	847	157.646762724588	82
2	863	162.146619911993	83
2	871	163.587703947803	84
2	885	165.816492827219	85
2	889	165.850047198611	86
2	901	169.089239422922	87
2	909	170.763088149788	88
2	913	170.826519639193	89
2	925	173.782845193881	90
2	935	175.021940183054	91
2	939	175.058723316672	92
2	949	176.558834881456	93
2	961	177.693337713171	94
2	973	180.236483857982	95
2	983	181.947796952669	96
2	991	183.292114718434	97
2	997	185.12103070168	98
2	1005	186.691466798073	99
2	1011	188.648417031312	100
2	1019	190.181640289814	101
2	1027	192.013337924778	102
2	1059	199.14137101168	103
2	1067	200.970490957276	104
2	1079	202.508037473404	105
2	1113	210.899393927304	106
2	1123	212.289812999822	107
2	1131	213.613960438138	108
2	1151	218.218649766088	109
2	1161	219.291636753006	110
2	1179	223.062674749769	111
2	1189	224.497260544271	112
2	1203	227.268396502849	113
2	1211	228.427930709298	114
2	1223	229.594364263309	115
2	1235	230.681686184481	116
2	1257	234.991424554116	117
2	1265	236.229772496373	118
2	1285	238.709327562911	119
3	7	0.180512683223	0
3	15	1.778226948631	1
3	31	6.361177373356	2
3	43	7.740131214695	3
3	59	10.367869847828	4
3	69	11.668338973068	5
3	85	15.245109875899	6
3	97	16.64643931986	7
3	105	18.275023386503	8
3	115	20.072529544242	9
3	133	23.408097150095	10
3	141	25.314769846112	11
3	151	28.419610922805	12
3	159	29.588330548055	13
3	177	31.290959307638	14
3	191	32.635150600017	15
3	213	35.096602980208	16
3	221	36.498679595612	17
3	231	38.53669633233	18
3	241	40.319720975157	19
3	253	41.748319348946	20
3	275	47.21033689813	21
3	283	48.761532837187	22
3	293	51.023757850225	23
3	303	52.089393785577	24
3	311	53.103189638832	25
3	323	54.366541651612	26
3	331	56.23825560001	27
3	339	58.184244095376	28
3	349	59.513903683578	29
3	357	60.859469875645	30
3	387	67.06102889821	31
3	395	68.097575093675	32
3	403	69.538508533274	33
3	411	71.420225659815	34
3	423	72.752283368077	35
3	437	76.027155212726	36
3	455	78.748808902609	37
3	473	83.337290084685	38
3	487	86.112402794919	39
3	495	87.155352169361	40
3	511	89.310437257979	41
3	523	90.78883360642	42
3	537	93.392176740266	43
3	553	96.655657065046	44
3	605	114.506243323159	45
3	617	116.096181880145	46
3	633	118.963516629467	47
3	643	120.228152143893	48
3	659	123.157287090322	49
3	673	126.309220379102	50
3	681	128.230227378535	51
3	689	130.015594322333	52
3	701	131.420696830532	53
3	721	136.731671757761	54
3	745	139.756339656104	55
3	753	141.462229791643	56
3	771	144.693845575949	57
3	781	146.34898634102	58
3	793	149.344053278994	59
3	815	154.067389934034	60
3	829	155.604019662329	61
3	841	156.656258707887	62
3	865	162.160250383537	63
3	875	163.646818526832	64
3	891	165.895278712023	65
3	903	169.103576417626	66
3	915	170.837375847134	67
3	927	173.796777366751	68
3	943	175.10062851449	69
3	953	176.621390747895	70
3	975	180.251578143084	71
3	985	181.965495572027	72
3	999	185.141987200382	73
3	1021	190.195312971489	74
3	1041	194.368383369641	75
3	1053	197.353433570545	76
3	1061	199.160038422387	77
3	1071	201.004558745532	78
3	1087	204.040339569539	79
3	1095	205.654087893193	80
3	1107	209.563205441355	81
3	1115	210.93242999607	82
3	1125	212.314642593466	83
3	1135	213.654778179298	84
3	1143	215.574262355004	85
3	1153	218.231991720238	86
3	1163	219.304178799633	87
3	1173	221.438912521773	88
3	1183	223.097112784711	89
3	1191	224.511843289902	90
3	1205	227.297939590566	91
3	1215	228.483913620023	92
3	1227	229.627307648934	93
3	1239	230.719472126758	94
3	1251	233.290384498239	95
3	1259	235.007905257713	96
3	1269	236.285035792898	97
3	1277	237.398590465401	98
3	1289	238.756267386437	99
4	8	0.190512683223	0
4	16	1.788226948631	1
4	32	6.371177373356	2
4	44	7.750131214695	3
4	60	10.377869847828	4
4	70	11.678338973068	5
4	86	15.255109875899	6
4	98	16.65643931986	7
4	106	18.285023386503	8
4	116	20.082529544242	9
4	134	23.418097150095	10
4	142	25.324769846112	11
4	152	28.429610922805	12
4	160	29.598330548055	13
4	178	31.300959307638	14
4	192	32.645150600017	15
4	214	35.106602980208	16
4	222	36.508679595612	17
4	232	38.54669633233	18
4	242	40.329720975157	19
4	254	41.758319348946	20
4	276	47.22033689813	21
4	284	48.771532837187	22
4	294	51.033757850225	23
4	304	52.099393785577	24
4	312	53.113189638832	25
4	324	54.376541651612	26
4	332	56.24825560001	27
4	340	58.194244095376	28
4	350	59.523903683578	29
4	358	60.869469875645	30
4	388	67.07102889821	31
4	396	68.107575093675	32
4	404	69.548508533274	33
4	412	71.430225659815	34
4	424	72.762283368077	35
4	456	78.758808902609	36
4	474	83.347290084685	37
4	488	86.122402794919	38
4	496	87.165352169361	39
4	512	89.320437257979	40
4	524	90.79883360642	41
4	538	93.402176740266	42
4	554	96.665657065046	43
4	606	114.516243323159	44
4	618	116.106181880145	45
4	634	118.973516629467	46
4	644	120.238152143893	47
4	660	123.167287090322	48
4	674	126.319220379102	49
4	682	128.240227378535	50
4	690	130.025594322333	51
4	702	131.430696830532	52
4	722	136.741671757761	53
4	746	139.766339656104	54
4	754	141.472229791643	55
4	772	144.703845575949	56
4	782	146.35898634102	57
4	794	149.354053278994	58
4	816	154.077389934034	59
4	830	155.614019662329	60
4	842	156.666258707887	61
4	866	162.170250383537	62
4	876	163.656818526832	63
4	892	165.905278712023	64
4	904	169.113576417626	65
4	916	170.847375847134	66
4	928	173.806777366751	67
4	954	176.631390747895	68
4	976	180.261578143084	69
4	986	181.975495572027	70
4	1022	190.205312971489	71
4	1042	194.378383369641	72
4	1054	197.363433570545	73
4	1062	199.170038422387	74
4	1088	204.050339569539	75
4	1096	205.664087893193	76
4	1108	209.573205441355	77
4	1116	210.94242999607	78
4	1126	212.324642593466	79
4	1136	213.664778179298	80
4	1144	215.584262355004	81
4	1154	218.241991720238	82
4	1174	221.448912521773	83
4	1184	223.107112784711	84
4	1192	224.521843289902	85
4	1206	227.307939590566	86
4	1216	228.493913620023	87
4	1228	229.637307648934	88
4	1252	233.300384498239	89
4	1260	235.017905257713	90
4	1270	236.295035792898	91
4	1278	237.408590465401	92
4	1290	238.766267386437	93
5	13	1.752537987455	0
5	29	6.344760281629	1
5	39	7.700561910692	2
5	55	10.320125529135	3
5	67	11.656958686184	4
5	79	15.198352166099	5
5	83	15.228830460089	6
5	93	16.621702534499	7
5	103	18.227404113658	8
5	111	20.046811463259	9
5	123	21.561308091797	10
5	131	23.379623873585	11
5	139	25.304566721524	12
5	157	29.547807731486	13
5	167	31.162080063499	14
5	171	31.207132445884	15
5	175	31.249704624061	16
5	185	32.586439071921	17
5	189	32.623694860233	18
5	199	34.006516027722	19
5	203	34.033685068986	20
5	209	35.071203397213	21
5	219	36.479119931373	22
5	227	38.504404078811	23
5	237	40.29263515386	24
5	247	41.679796616046	25
5	251	41.717559038342	26
5	267	47.142642937259	27
5	271	47.184210504443	28
5	281	48.748952709548	29
5	291	51.004143454509	30
5	301	52.066851752876	31
5	309	53.078985804276	32
5	319	54.321688268254	33
5	337	58.172575348964	34
5	345	59.46272868657	35
5	365	62.013958097642	36
5	371	63.139661121632	37
5	385	67.049024476259	38
5	401	69.516179728644	39
5	417	72.71413517297	40
5	421	72.738747402324	41
5	433	75.99780376811	42
5	449	78.679796644684	43
5	453	78.722179244802	44
5	507	89.28194824607	45
5	519	90.743659219953	46
5	535	93.373497040446	47
5	545	96.556148970869	48
5	549	96.615131776998	49
5	571	102.578269415936	50
5	613	116.073935763549	51
5	625	117.155377785552	52
5	641	120.200511269971	53
5	651	123.084785484412	54
5	655	123.133127614336	55
5	665	124.834550739921	56
5	671	126.294532422186	57
5	695	131.323034404266	58
5	699	131.407232497257	59
5	707	133.268915287454	60
5	719	136.684477674652	61
5	727	138.236967848528	62
5	731	138.283208934777	63
5	739	139.714084340149	64
5	743	139.73919331423	65
5	759	143.102994709341	66
5	767	144.671240064492	67
5	779	146.335564594104	68
5	791	149.3094268363	69
5	807	152.288168071834	70
5	813	154.036178389466	71
5	821	155.519022893168	72
5	825	155.565866856795	73
5	835	156.608100966075	74
5	839	156.640345680031	75
5	853	159.244865112483	76
5	861	162.124059956005	77
5	873	163.632843736033	78
5	883	165.784360554904	79
5	887	165.831080340245	80
5	899	169.078856534944	81
5	911	170.804538125315	82
5	923	173.740966352158	83
5	933	174.970940840127	84
5	937	175.047123874538	85
5	941	175.070818961529	86
5	951	176.610787567657	87
5	959	177.682284568979	88
5	967	179.115685184335	89
5	981	181.926655805304	90
5	1013	188.660531243062	91
5	1029	192.024022313532	92
5	1039	194.356156981121	93
5	1051	197.320829566071	94
5	1069	200.987342158055	95
5	1077	202.462725059399	96
5	1085	203.992702761604	97
5	1093	205.617377643458	98
5	1105	209.533631257433	99
5	1121	212.277004088267	100
5	1133	213.639018949569	101
5	1141	215.562561784116	102
5	1159	219.278863677717	103
5	1171	221.416566983075	104
5	1181	223.083708002796	105
5	1201	227.257472627661	106
5	1213	228.457203754271	107
5	1221	229.584036207762	108
5	1225	229.606263180884	109
5	1233	230.667009943708	110
5	1237	230.69610551637	111
5	1249	233.275937313689	112
5	1267	236.262694992631	113
5	1275	237.384168963682	114
5	1283	238.694611605706	115
5	1287	238.735203855787	116

