version 2
run General-4-20230921-23:10:37-8425
attr configname General
attr datetime 20230921-23:10:37
attr experiment General
attr inifile omnetpp.ini
attr iterationvars ""
attr iterationvarsf ""
attr measurement ""
attr network Network1
attr processid 8425
attr repetition 4
attr replication #4
attr resultdir results
attr runnumber 4
attr seedset 4
param Network1.node[*].transmissionTime "uniform(1s, 2s)"
param Network1.node[*].delayTime "uniform(0.01s, 0.2s)"
param Network1.node[*].processingTime exponential(0.01s)
param Network1.node[*].lossProbability 0.1

vector 0 Network1.node[0] txVector ETV
vector 1 Network1.node[1] txVector ETV
vector 2 Network1.node[3] txVector ETV
vector 3 Network1.node[2] txVector ETV
vector 4 Network1.node[4] txVector ETV
vector 5 Network1.node[5] rxVector ETV
0	1	0.193735669288	0
0	11	2.094357123985	1
0	19	3.792777363365	2
0	27	5.776178036738	3
0	31	7.420092299968	4
0	33	9.369069606919	5
0	39	11.155375591168	6
0	47	12.75611831822	7
0	51	14.591375025609	8
0	59	15.749598433185	9
0	69	17.124966866957	10
0	77	18.483733240204	11
0	89	20.121290308345	12
0	99	21.477663398176	13
0	103	22.557642638139	14
0	109	24.290236090231	15
0	121	25.355303898142	16
0	131	27.188452449316	17
0	139	29.125743929451	18
0	149	30.314769683327	19
0	151	31.73380372386	20
0	163	33.63622558272	21
0	171	35.098554945006	22
0	179	37.042352450234	23
0	183	38.272249350245	24
0	191	39.312340471814	25
0	199	41.209032326857	26
0	209	42.215356266978	27
0	217	44.141164862704	28
0	231	45.706509223361	29
0	245	47.013925835876	30
0	247	48.74165450727	31
0	255	50.431439801272	32
0	261	51.583325403895	33
0	271	52.89553043797	34
0	281	54.519683680649	35
0	291	55.70489291536	36
0	293	56.93563885839	37
0	301	57.988073737512	38
0	309	59.239572203637	39
0	325	61.187898084906	40
0	335	62.288448315731	41
0	343	64.08044889468	42
0	347	65.314229324611	43
0	355	66.663960422307	44
0	367	67.74666803322	45
0	375	69.041111115284	46
0	383	70.68441964212	47
0	391	72.280922918964	48
0	401	73.948377448052	49
0	409	75.357813035987	50
0	417	76.390872503549	51
0	423	78.19912222625	52
0	429	79.518547417282	53
0	445	81.090372110869	54
0	455	82.621298978257	55
0	457	84.465527941857	56
0	467	85.710327216343	57
0	473	86.867420683767	58
0	481	88.525497398258	59
0	491	90.26001657747	60
0	495	92.117509813432	61
0	499	93.457875975326	62
0	505	95.154927414295	63
0	509	96.85805729233	64
0	515	98.823586602149	65
0	521	100.741769903492	66
0	525	102.494835447905	67
0	535	104.119976638503	68
0	547	105.442637653941	69
0	559	106.910056013999	70
0	567	108.198910939427	71
0	575	109.522631952925	72
0	587	111.215976444226	73
0	591	112.236038025156	74
0	605	113.343922248263	75
0	617	115.024611283247	76
0	625	116.834789961031	77
0	627	118.31314049141	78
0	629	119.39596401962	79
0	637	121.359713461404	80
0	649	123.182026403644	81
0	657	124.376425312287	82
0	665	126.360667251902	83
0	669	127.946350627965	84
0	677	129.718048734511	85
0	685	131.208720646486	86
0	693	133.118781314152	87
0	695	135.022289018067	88
0	703	136.735706448708	89
0	711	138.023829258899	90
0	721	139.644452749206	91
0	729	141.222123293126	92
0	733	143.193169820741	93
0	747	144.38272669624	94
0	755	145.423084785151	95
0	763	147.197424267805	96
0	767	149.125938615217	97
0	775	150.900863252268	98
0	783	152.73556580666	99
0	785	154.375445827763	100
0	797	156.008485897831	101
0	809	157.919992015618	102
0	811	159.424904352673	103
0	819	160.787453546342	104
0	821	161.900990739851	105
0	829	163.121919599748	106
0	837	164.936163992309	107
0	839	166.656558772237	108
0	841	167.774026433392	109
0	851	168.92033803944	110
0	853	169.984960344075	111
0	855	171.025158190788	112
0	865	172.102717359006	113
0	873	173.398788219472	114
0	881	174.578633396808	115
0	889	175.957143389309	116
0	897	177.247625213737	117
0	907	178.947259595074	118
0	909	180.418206970362	119
0	913	181.963530431423	120
0	921	183.505381887467	121
0	933	184.859423603784	122
0	935	185.884489890575	123
0	953	187.111352170972	124
0	955	188.868974909341	125
0	967	189.929161953196	126
0	971	191.62035760136	127
0	979	192.845592891487	128
0	985	194.027737404608	129
0	995	195.35483896515	130
0	1005	196.954481442381	131
0	1009	198.882977527023	132
0	1019	200.009482506352	133
0	1027	201.591923788345	134
0	1035	203.011826910234	135
0	1039	204.522078508667	136
0	1053	205.797989825874	137
0	1061	207.31656474333	138
0	1069	208.86801476862	139
0	1079	209.941827854297	140
0	1089	211.252610044942	141
0	1097	212.324979944776	142
0	1111	214.306240936198	143
0	1119	216.116949352125	144
0	1127	217.80372431494	145
0	1135	219.468650357255	146
0	1147	220.980262053355	147
0	1149	222.719422865349	148
0	1159	224.546617735333	149
0	1167	225.769548191146	150
0	1171	227.203442036563	151
0	1173	229.007410376489	152
0	1175	230.172310789039	153
0	1185	231.741356380906	154
0	1195	232.854452431126	155
0	1203	233.996928329271	156
0	1205	235.928827956243	157
0	1215	237.69578039429	158
0	1223	239.075983526109	159
1	3	0.205631491707	0
1	13	2.127705988723	1
1	21	3.804566743167	2
1	29	5.802841405871	3
1	35	9.399190374385	4
1	41	11.167214485226	5
1	49	12.769142513985	6
1	53	14.609254059132	7
1	61	15.769613215778	8
1	71	17.135835189194	9
1	79	18.495858323362	10
1	91	20.154784569612	11
1	101	21.488120150581	12
1	105	22.590147432288	13
1	111	24.308003002946	14
1	123	25.391806702919	15
1	133	27.20114630957	16
1	141	29.142142293603	17
1	153	31.782733902969	18
1	165	33.647797529621	19
1	173	35.110463884495	20
1	181	37.052728031385	21
1	185	38.282410352158	22
1	193	39.329350269228	23
1	201	41.220078465477	24
1	211	42.238102083957	25
1	219	44.173327811912	26
1	233	45.776047011615	27
1	249	48.757662387913	28
1	257	50.443944703692	29
1	263	51.594586088643	30
1	273	52.914993102261	31
1	283	54.534925867585	32
1	295	56.965209033957	33
1	303	58.017976850602	34
1	311	59.254221707201	35
1	327	61.20362812764	36
1	337	62.360687289228	37
1	345	64.095287162129	38
1	349	65.326256853076	39
1	357	66.675662757899	40
1	369	67.765184389867	41
1	377	69.060529929176	42
1	385	70.711302634737	43
1	393	72.291630734672	44
1	403	73.979315409364	45
1	411	75.370131890293	46
1	419	76.402187456877	47
1	425	78.222215299907	48
1	431	79.53019014252	49
1	447	81.100385678783	50
1	459	84.499691785849	51
1	469	85.721633429194	52
1	475	86.884047927645	53
1	483	88.553295351228	54
1	493	90.27569351209	55
1	497	92.128320517163	56
1	501	93.498901566737	57
1	507	95.166525898203	58
1	511	96.875406606987	59
1	517	98.837033271949	60
1	523	100.760921123133	61
1	527	102.52402047982	62
1	537	104.142864577223	63
1	549	105.457955880537	64
1	561	106.920908478129	65
1	569	108.209477457818	66
1	577	109.548812405909	67
1	589	111.235550748773	68
1	593	112.253327844014	69
1	607	113.361679966238	70
1	619	115.034769117244	71
1	631	119.423994200621	72
1	639	121.390522081154	73
1	651	123.195655368054	74
1	659	124.411758741623	75
1	667	126.374151018911	76
1	671	127.971225361105	77
1	679	129.76937899222	78
1	687	131.222288279411	79
1	697	135.038409469164	80
1	705	136.75039096677	81
1	713	138.050280973665	82
1	723	139.65703938788	83
1	731	141.238516590878	84
1	735	143.215867332574	85
1	749	144.395872513086	86
1	757	145.433756858433	87
1	765	147.210313578921	88
1	769	149.141893016253	89
1	777	150.929457559757	90
1	787	154.385585762351	91
1	799	156.043464764614	92
1	813	159.439071598349	93
1	823	161.957733602699	94
1	831	163.175280268739	95
1	843	167.803865646984	96
1	857	171.073323581486	97
1	867	172.123951369842	98
1	875	173.415361395967	99
1	883	174.592171802171	100
1	891	175.968324156842	101
1	899	177.259608870809	102
1	911	180.44808450604	103
1	915	181.974930782943	104
1	923	183.539209291421	105
1	937	185.902125576961	106
1	957	188.898728837893	107
1	969	189.942806239853	108
1	973	191.631848992928	109
1	981	192.859795387948	110
1	987	194.048037126754	111
1	997	195.366323365848	112
1	1007	196.96606412743	113
1	1011	198.905629856444	114
1	1021	200.019662603007	115
1	1029	201.603567679117	116
1	1037	203.029467835462	117
1	1041	204.541917428717	118
1	1055	205.810692886078	119
1	1063	207.327814200306	120
1	1071	208.909254385935	121
1	1081	209.952896000037	122
1	1091	211.268376255403	123
1	1099	212.336998501516	124
1	1113	214.372403158816	125
1	1121	216.13092984783	126
1	1129	217.823482245998	127
1	1137	219.480953009992	128
1	1151	222.761675540012	129
1	1161	224.590547830019	130
1	1169	225.779941819393	131
1	1177	230.200896901314	132
1	1187	231.753655271936	133
1	1197	232.868563475754	134
1	1207	235.946520747742	135
1	1217	237.741421561717	136
1	1225	239.098182327531	137
2	5	0.228177698444	0
2	23	3.831277097468	1
2	37	9.415012669332	2
2	43	11.195763274798	3
2	65	15.812801539082	4
2	73	17.155641637894	5
2	83	18.541702760025	6
2	93	20.173274133284	7
2	113	24.326964787554	8
2	117	24.351703416606	9
2	125	25.420366930435	10
2	145	29.189580685073	11
2	157	31.836877803567	12
2	161	31.874909734109	13
2	195	39.342531289749	14
2	205	41.272786710635	15
2	223	44.198049588854	16
2	227	44.233850167097	17
2	237	45.817470789615	18
2	241	45.873931498393	19
2	251	48.789221110495	20
2	259	50.475490009281	21
2	265	51.607675790303	22
2	269	51.650973409906	23
2	277	52.9560131937	24
2	285	54.549719690541	25
2	297	56.981423808392	26
2	305	58.036258578466	27
2	315	59.284219331419	28
2	319	59.337644197692	29
2	329	61.220201433994	30
2	339	62.371997369293	31
2	351	65.344635553407	32
2	361	66.712026369067	33
2	371	67.779296905513	34
2	381	69.087902120583	35
2	387	70.739757823516	36
2	397	72.314480863863	37
2	405	73.996067227849	38
2	413	75.38718018312	39
2	421	76.440402284713	40
2	427	78.233418427418	41
2	435	79.557563684031	42
2	439	79.587223259499	43
2	451	81.143585205214	44
2	463	84.525315993375	45
2	471	85.735269212206	46
2	477	86.900802390299	47
2	485	88.565539073078	48
2	503	93.524793646272	49
2	513	96.891399673865	50
2	529	102.541577810572	51
2	539	104.168495099841	52
2	543	104.209776043311	53
2	553	105.519934549421	54
2	557	105.547415099872	55
2	581	109.590983187569	56
2	595	112.266029440833	57
2	599	112.295145771096	58
2	611	113.410806009834	59
2	643	121.42314289636	60
2	653	123.216355909373	61
2	673	127.9897702648	62
2	681	129.788710525453	63
2	689	131.254625942407	64
2	699	135.050922979929	65
2	717	138.122996624048	66
2	737	143.228976098157	67
2	741	143.290380343931	68
2	759	145.454992489761	69
2	791	154.410496873057	70
2	803	156.092145187049	71
2	807	156.127372678135	72
2	815	159.450214613433	73
2	847	167.848733629694	74
2	861	171.116672693085	75
2	869	172.134178011632	76
2	877	173.428349618661	77
2	885	174.626400916731	78
2	893	175.979226724056	79
2	901	177.270270242788	80
2	905	177.303816082802	81
2	925	183.553871764281	82
2	929	183.586545432196	83
2	941	185.935804362351	84
2	945	185.963233004676	85
2	949	185.99117919009	86
2	959	188.928690350254	87
2	963	188.964277865185	88
2	983	192.879339315778	89
2	991	194.083099379423	90
2	999	195.383046238686	91
2	1015	198.940242154128	92
2	1025	200.04157895855	93
2	1045	204.570114894533	94
2	1049	204.614772018418	95
2	1057	205.820965091025	96
2	1075	208.936533783031	97
2	1085	210.013356025254	98
2	1093	211.310798952622	99
2	1103	212.366242702553	100
2	1107	212.396428475065	101
2	1123	216.143604465057	102
2	1141	219.506221817312	103
2	1153	222.830692049632	104
2	1163	224.627220957612	105
2	1179	230.239691969434	106
2	1189	231.772230251936	107
2	1209	235.974373441694	108
2	1227	239.130146414681	109
2	1231	239.162756483515	110
3	7	0.247279696778	0
3	15	2.152819256492	1
3	25	3.846164009576	2
3	55	14.621247360117	3
3	63	15.794197779741	4
3	81	18.506645578184	5
3	85	18.55549596121	6
3	95	20.196495735436	7
3	107	22.601205265305	8
3	115	24.341484858574	9
3	127	25.445819978888	10
3	135	27.215680578164	11
3	143	29.173840078864	12
3	155	31.813672785453	13
3	159	31.860641038467	14
3	167	33.672049109423	15
3	175	35.122636800447	16
3	187	38.305388170812	17
3	203	41.257550612755	18
3	213	42.270938910478	19
3	221	44.184775209993	20
3	225	44.208979219684	21
3	235	45.804401997858	22
3	239	45.85484931717	23
3	253	48.829580492687	24
3	267	51.62539296953	25
3	275	52.928593728314	26
3	279	52.979766676312	27
3	287	54.581447040372	28
3	313	59.2662607721	29
3	317	59.301716811619	30
3	321	59.373571848919	31
3	331	61.235128840973	32
3	359	66.696533200439	33
3	363	66.722976891399	34
3	379	69.075751421221	35
3	389	70.759448655282	36
3	395	72.301669536229	37
3	433	79.546969101814	38
3	437	79.570744334199	39
3	441	79.607521757115	40
3	449	81.126291073994	41
3	461	84.510007132843	42
3	487	88.580911493348	43
3	519	98.887495600877	44
3	531	102.558560503736	45
3	541	104.194765824823	46
3	551	105.472746564656	47
3	555	105.533637811791	48
3	563	106.948743498425	49
3	571	108.251997596597	50
3	579	109.576821172834	51
3	583	109.608215619123	52
3	597	112.284502810191	53
3	601	112.307224536923	54
3	609	113.382246749835	55
3	613	113.440376045304	56
3	621	115.046778963659	57
3	633	119.456439788692	58
3	641	121.412802913278	59
3	645	121.43997228535	60
3	661	124.443603415682	61
3	675	128.002540452778	62
3	707	136.771537054656	63
3	715	138.090882166775	64
3	725	139.685707655598	65
3	739	143.254314185336	66
3	743	143.30420362786	67
3	751	144.460573062329	68
3	771	149.179019217848	69
3	779	150.954117009059	70
3	789	154.395594833215	71
3	793	154.428605606574	72
3	801	156.07299199379	73
3	805	156.111666784722	74
3	817	159.492337708472	75
3	825	161.971719090197	76
3	833	163.19990175582	77
3	845	167.826746164629	78
3	859	171.097275473195	79
3	903	177.281076175455	80
3	917	181.99027661111	81
3	927	183.565550903532	82
3	939	185.915319800537	83
3	943	185.94710446514	84
3	947	185.973705343981	85
3	961	188.949851410102	86
3	965	188.977802120996	87
3	975	191.662952279267	88
3	989	194.060025603186	89
3	1001	195.396266405589	90
3	1013	198.928699284955	91
3	1023	200.030104269418	92
3	1031	201.639211560061	93
3	1043	204.555630089369	94
3	1047	204.592986384498	95
3	1065	207.352052617308	96
3	1073	208.921998315482	97
3	1083	209.966059515987	98
3	1087	210.029132096194	99
3	1101	212.354733518331	100
3	1105	212.385063615179	101
3	1115	214.382640255959	102
3	1131	217.834044857846	103
3	1139	219.491198989266	104
3	1143	219.524432584857	105
3	1155	222.849669942547	106
3	1181	230.268494466092	107
3	1191	231.786584900901	108
3	1199	232.893118761489	109
3	1211	235.987016505969	110
3	1219	237.755098597682	111
3	1229	239.142862916321	112
4	9	0.294691726298	0
4	17	2.171313910045	1
4	45	11.213269106227	2
4	57	14.636380571508	3
4	67	15.829783800875	4
4	75	17.192149831888	5
4	87	18.570887805937	6
4	97	20.215551422553	7
4	119	24.362866711374	8
4	129	25.462958451078	9
4	137	27.227633527425	10
4	147	29.201053231408	11
4	169	33.696128759992	12
4	177	35.14703348382	13
4	189	38.326102558483	14
4	197	39.358917274851	15
4	207	41.299438178765	16
4	215	42.286208314688	17
4	229	44.255504782534	18
4	243	45.900410632764	19
4	289	54.596651747152	20
4	299	56.994575923693	21
4	307	58.04651587741	22
4	323	59.420829475614	23
4	333	61.250874014433	24
4	341	62.387325373114	25
4	353	65.356440726561	26
4	365	66.733153783433	27
4	373	67.793691597892	28
4	399	72.327558565102	29
4	407	74.011623211889	30
4	415	75.434060963899	31
4	443	79.620711368189	32
4	453	81.165867854849	33
4	465	84.5410301805	34
4	479	86.931070469678	35
4	489	88.602046147335	36
4	533	102.571853739664	37
4	545	104.228260553641	38
4	565	106.965728422525	39
4	573	108.28471486164	40
4	585	109.618917785667	41
4	603	112.33926604753	42
4	615	113.453547750306	43
4	623	115.059237370435	44
4	635	119.480204095524	45
4	647	121.464682977651	46
4	655	123.240847969682	47
4	663	124.462505902972	48
4	683	129.805533301778	49
4	691	131.270475423524	50
4	701	135.067131926994	51
4	709	136.782748338634	52
4	719	138.150330321257	53
4	727	139.710028339683	54
4	745	143.332555212473	55
4	753	144.471221133895	56
4	761	145.473552543033	57
4	773	149.195836675924	58
4	781	150.982218887446	59
4	795	154.442726742275	60
4	827	161.988142948063	61
4	835	163.224095239493	62
4	849	167.864648335888	63
4	863	171.136086757332	64
4	871	172.144598251606	65
4	879	173.454076073124	66
4	887	174.636622780214	67
4	895	175.997827359265	68
4	919	182.005789685894	69
4	931	183.597886308806	70
4	951	186.00192844782	71
4	977	191.688171374784	72
4	993	194.105566585145	73
4	1003	195.416653660289	74
4	1017	198.950905332071	75
4	1033	201.661783671944	76
4	1051	204.641052654169	77
4	1059	205.843448933116	78
4	1067	207.38778445035	79
4	1077	208.975436321104	80
4	1095	211.325786533925	81
4	1109	212.414030425694	82
4	1117	214.417448984914	83
4	1125	216.154557642615	84
4	1133	217.884240674205	85
4	1145	219.538169472551	86
4	1157	222.872533223987	87
4	1165	224.645912325489	88
4	1183	230.300327989962	89
4	1193	231.801812081665	90
4	1201	232.919209833035	91
4	1213	236.019840122805	92
4	1221	237.768250812197	93
4	1233	239.177936678178	94
5	18	2.181313910045	0
5	46	11.223269106227	1
5	58	14.646380571508	2
5	68	15.839783800875	3
5	76	17.202149831888	4
5	88	18.580887805937	5
5	120	24.372866711374	6
5	130	25.472958451078	7
5	138	27.237633527425	8
5	148	29.211053231408	9
5	170	33.706128759992	10
5	178	35.15703348382	11
5	190	38.336102558483	12
5	198	39.368917274851	13
5	208	41.309438178765	14
5	216	42.296208314688	15
5	230	44.265504782534	16
5	290	54.606651747152	17
5	300	57.004575923693	18
5	308	58.05651587741	19
5	324	59.430829475614	20
5	334	61.260874014433	21
5	354	65.366440726561	22
5	366	66.743153783433	23
5	374	67.803691597892	24
5	400	72.337558565102	25
5	408	74.021623211889	26
5	416	75.444060963899	27
5	444	79.630711368189	28
5	454	81.175867854849	29
5	480	86.941070469678	30
5	490	88.612046147335	31
5	534	102.581853739664	32
5	546	104.238260553641	33
5	566	106.975728422525	34
5	574	108.29471486164	35
5	586	109.628917785667	36
5	616	113.463547750306	37
5	624	115.069237370435	38
5	636	119.490204095524	39
5	648	121.474682977651	40
5	656	123.250847969682	41
5	664	124.472505902972	42
5	684	129.815533301778	43
5	692	131.280475423524	44
5	702	135.077131926994	45
5	710	136.792748338634	46
5	720	138.160330321257	47
5	728	139.720028339683	48
5	746	143.342555212473	49
5	754	144.481221133895	50
5	762	145.483552543033	51
5	774	149.205836675924	52
5	782	150.992218887446	53
5	796	154.452726742275	54
5	828	161.998142948063	55
5	836	163.234095239493	56
5	850	167.874648335888	57
5	864	171.146086757332	58
5	872	172.154598251606	59
5	880	173.464076073124	60
5	888	174.646622780214	61
5	920	182.015789685894	62
5	932	183.607886308806	63
5	952	186.01192844782	64
5	978	191.698171374784	65
5	1004	195.426653660289	66
5	1018	198.960905332071	67
5	1034	201.671783671944	68
5	1052	204.651052654169	69
5	1060	205.853448933116	70
5	1068	207.39778445035	71
5	1078	208.985436321104	72
5	1096	211.335786533925	73
5	1110	212.424030425694	74
5	1118	214.427448984914	75
5	1126	216.164557642615	76
5	1134	217.894240674205	77
5	1146	219.548169472551	78
5	1158	222.882533223987	79
5	1166	224.655912325489	80
5	1184	230.310327989962	81
5	1194	231.811812081665	82
5	1202	232.929209833035	83
5	1222	237.778250812197	84
5	1234	239.187936678178	85

