version 2
run General-3-20231008-05:34:47-14246
attr configname General
attr datetime 20231008-05:34:47
attr experiment General
attr inifile omnetpp.ini
attr iterationvars ""
attr iterationvarsf ""
attr measurement ""
attr network Reliability
attr processid 14246
attr repetition 3
attr replication #3
attr resultdir results
attr runnumber 3
attr seedset 3
param Reliability.node[*].transmissionTime "uniform(1s, 2s)"
param Reliability.node[*].delayTime "uniform(0.01s, 0.2s)"
param Reliability.node[*].processingTime exponential(0.01s)
param Reliability.node[*].lossProbability 0.2

vector 0 Reliability.node[0] txVector ETV
vector 1 Reliability.node[1] txVector ETV
vector 2 Reliability.node[3] txVector ETV
vector 3 Reliability.node[4] txVector ETV
vector 4 Reliability.node[2] txVector ETV
vector 5 Reliability.node[5] rxVector ETV
0	1	0.114651601831	0
0	14	1.185376482154	1
0	30	2.392619360774	2
0	46	3.983482171851	3
0	62	5.140349912527	4
0	78	6.812733591138	5
0	94	8.037788093858	6
0	110	9.321275954437	7
0	126	10.683452170644	8
0	142	12.25624603622	9
0	144	13.906722897965	10
0	153	15.630662034567	11
0	155	16.907985083594	12
0	157	18.084047198829	13
0	159	20.074348387376	14
0	161	21.766999003778	15
0	177	23.51913903381	16
0	193	25.33891976259	17
0	209	26.622327134547	18
0	225	27.810577982639	19
0	227	29.382815602536	20
0	229	30.725235189379	21
0	235	32.33488090413	22
0	251	34.334856367971	23
0	267	36.330299542819	24
0	269	38.328582667348	25
0	285	40.319878388264	26
0	287	42.167600342373	27
0	303	43.249171384911	28
0	319	44.559133019599	29
0	335	46.378675103255	30
0	351	48.307173949734	31
0	367	50.089557928799	32
0	373	51.809709162519	33
0	375	52.831804976866	34
0	391	54.054181296446	35
0	403	55.857009266571	36
0	409	57.069903602193	37
0	425	59.062827159253	38
0	438	60.680281341377	39
0	444	61.710592699073	40
0	460	63.390094506856	41
0	476	64.987097747926	42
0	478	66.132387706381	43
0	491	67.834407831845	44
0	504	69.336331175245	45
0	520	71.072024562699	46
0	522	72.748021151708	47
0	538	74.19393526211	48
0	554	75.414271593165	49
0	556	76.891363232235	50
0	572	78.391928783456	51
0	588	80.311749392958	52
0	604	81.43818669261	53
0	620	83.069398804172	54
0	629	84.760362507845	55
0	631	86.482804710348	56
0	647	88.110830195551	57
0	663	89.736338589178	58
0	679	90.819410729991	59
0	695	92.158056432452	60
0	711	93.571675421974	61
0	727	94.622640842876	62
0	743	96.473753837241	63
0	745	97.510890791264	64
0	761	99.509237869947	65
0	777	100.998501861539	66
0	793	102.701379469667	67
0	806	104.464799402818	68
0	808	106.194773150446	69
0	824	107.618889050629	70
0	826	108.924000436744	71
0	828	110.546313076817	72
0	830	112.230614747691	73
0	846	113.757577004914	74
0	862	114.914811686684	75
0	878	116.520022311086	76
0	894	118.497416537326	77
0	910	120.302962872969	78
0	912	121.801768094372	79
0	921	122.871887106985	80
0	937	124.183436443402	81
0	953	125.240678245739	82
0	969	126.488775259654	83
0	971	128.20505653911	84
0	987	129.660986864313	85
0	1003	131.153484299851	86
0	1019	132.695273462057	87
0	1021	134.122172055373	88
0	1037	135.799445311612	89
0	1039	137.469467646283	90
0	1041	138.907502482253	91
0	1057	140.404570011263	92
0	1059	141.561311265993	93
0	1075	142.842560249222	94
0	1091	143.954322560299	95
0	1107	145.448225177666	96
0	1116	147.392241652198	97
0	1132	149.086766849346	98
0	1134	150.719985428806	99
0	1150	151.982237731879	100
0	1166	153.777227358966	101
0	1182	155.430630607837	102
0	1198	156.523838405571	103
0	1200	157.568315908852	104
0	1216	158.819408444761	105
0	1232	160.166070181484	106
0	1234	161.456270497366	107
0	1250	162.915913351885	108
0	1266	164.633773499708	109
0	1268	165.779794744523	110
0	1284	167.203633779967	111
0	1290	168.303900791872	112
0	1306	169.720390688702	113
0	1322	171.050620204843	114
0	1328	172.423214665222	115
0	1344	174.072480256976	116
0	1360	175.418387555824	117
0	1372	176.862095624515	118
0	1388	178.579490924328	119
0	1390	180.140780068775	120
0	1406	181.46672163329	121
0	1412	182.889933698651	122
0	1428	184.714829630292	123
0	1444	186.292877200599	124
0	1460	187.861698276204	125
0	1462	189.43863924507	126
0	1464	190.585752191096	127
0	1480	191.751925223115	128
0	1482	193.165829399441	129
0	1498	194.196631686137	130
0	1514	195.850781878297	131
0	1530	197.58379557317	132
0	1532	199.442688612108	133
0	1548	200.550987392737	134
0	1564	202.412408201563	135
0	1566	204.23287369714	136
0	1582	205.921415153731	137
0	1598	207.024520866879	138
0	1600	208.996146505073	139
0	1616	210.299092453745	140
0	1618	211.668045932733	141
0	1634	212.963571024899	142
0	1650	214.563823080695	143
0	1666	215.852102800579	144
0	1682	217.025483901686	145
0	1698	218.78776606785	146
0	1711	220.313597305053	147
0	1724	222.078287384314	148
0	1726	223.464464108767	149
0	1742	225.446246083202	150
0	1755	226.902892755419	151
0	1757	228.453321102383	152
0	1773	230.407647213042	153
0	1786	231.744433002388	154
0	1802	233.523914517444	155
0	1818	235.462229394662	156
0	1820	236.854551499086	157
0	1836	238.077268559794	158
0	1852	239.363613748533	159
1	3	0.14297423212	0
1	3	0.14297423212	1
1	3	0.14297423212	2
1	16	1.195904871331	3
1	16	1.195904871331	4
1	16	1.195904871331	5
1	32	2.402862102078	6
1	32	2.402862102078	7
1	32	2.402862102078	8
1	48	4.001349039417	9
1	48	4.001349039417	10
1	48	4.001349039417	11
1	64	5.173663267307	12
1	64	5.173663267307	13
1	64	5.173663267307	14
1	80	6.82795110738	15
1	80	6.82795110738	16
1	80	6.82795110738	17
1	96	8.051045083757	18
1	96	8.051045083757	19
1	96	8.051045083757	20
1	112	9.343575242905	21
1	112	9.343575242905	22
1	112	9.343575242905	23
1	128	10.69739456162	24
1	128	10.69739456162	25
1	128	10.69739456162	26
1	146	13.923168156016	27
1	146	13.923168156016	28
1	146	13.923168156016	29
1	163	21.778234436359	30
1	163	21.778234436359	31
1	163	21.778234436359	32
1	179	23.537608657024	33
1	179	23.537608657024	34
1	179	23.537608657024	35
1	195	25.370282713475	36
1	195	25.370282713475	37
1	195	25.370282713475	38
1	211	26.638664250728	39
1	211	26.638664250728	40
1	211	26.638664250728	41
1	231	30.736520541097	42
1	231	30.736520541097	43
1	231	30.736520541097	44
1	237	32.347999938074	45
1	237	32.347999938074	46
1	237	32.347999938074	47
1	253	34.349252727726	48
1	253	34.349252727726	49
1	253	34.349252727726	50
1	271	38.340298498619	51
1	271	38.340298498619	52
1	271	38.340298498619	53
1	289	42.181277466249	54
1	289	42.181277466249	55
1	289	42.181277466249	56
1	305	43.277582170263	57
1	305	43.277582170263	58
1	305	43.277582170263	59
1	321	44.572735522757	60
1	321	44.572735522757	61
1	321	44.572735522757	62
1	337	46.393186157043	63
1	337	46.393186157043	64
1	337	46.393186157043	65
1	353	48.332961207272	66
1	353	48.332961207272	67
1	353	48.332961207272	68
1	369	50.104835804386	69
1	369	50.104835804386	70
1	369	50.104835804386	71
1	377	52.846217128117	72
1	377	52.846217128117	73
1	377	52.846217128117	74
1	393	54.087284526489	75
1	393	54.087284526489	76
1	393	54.087284526489	77
1	405	55.872461134136	78
1	405	55.872461134136	79
1	405	55.872461134136	80
1	411	57.085586989516	81
1	411	57.085586989516	82
1	411	57.085586989516	83
1	427	59.081780429516	84
1	427	59.081780429516	85
1	427	59.081780429516	86
1	440	60.696471913461	87
1	440	60.696471913461	88
1	440	60.696471913461	89
1	446	61.73645013682	90
1	446	61.73645013682	91
1	446	61.73645013682	92
1	462	63.401535730146	93
1	462	63.401535730146	94
1	462	63.401535730146	95
1	480	66.150759418972	96
1	480	66.150759418972	97
1	480	66.150759418972	98
1	493	67.86055214714	99
1	493	67.86055214714	100
1	493	67.86055214714	101
1	506	69.356345734375	102
1	506	69.356345734375	103
1	506	69.356345734375	104
1	524	72.769155474815	105
1	524	72.769155474815	106
1	524	72.769155474815	107
1	540	74.20683785336	108
1	540	74.20683785336	109
1	540	74.20683785336	110
1	558	76.906768556026	111
1	558	76.906768556026	112
1	558	76.906768556026	113
1	574	78.421777742518	114
1	574	78.421777742518	115
1	574	78.421777742518	116
1	590	80.322506515737	117
1	590	80.322506515737	118
1	590	80.322506515737	119
1	606	81.45678993013	120
1	606	81.45678993013	121
1	606	81.45678993013	122
1	622	83.080336363004	123
1	622	83.080336363004	124
1	622	83.080336363004	125
1	633	86.498057165339	126
1	633	86.498057165339	127
1	633	86.498057165339	128
1	649	88.131930956238	129
1	649	88.131930956238	130
1	649	88.131930956238	131
1	665	89.753374291679	132
1	665	89.753374291679	133
1	665	89.753374291679	134
1	681	90.836895297249	135
1	681	90.836895297249	136
1	681	90.836895297249	137
1	697	92.192646451842	138
1	697	92.192646451842	139
1	697	92.192646451842	140
1	713	93.612785590324	141
1	713	93.612785590324	142
1	713	93.612785590324	143
1	729	94.654189476903	144
1	729	94.654189476903	145
1	729	94.654189476903	146
1	747	97.53098739648	147
1	747	97.53098739648	148
1	747	97.53098739648	149
1	763	99.522634287731	150
1	763	99.522634287731	151
1	763	99.522634287731	152
1	779	101.008951796041	153
1	779	101.008951796041	154
1	779	101.008951796041	155
1	795	102.717748419918	156
1	795	102.717748419918	157
1	795	102.717748419918	158
1	810	106.210860334511	159
1	810	106.210860334511	160
1	810	106.210860334511	161
1	832	112.244792300423	162
1	832	112.244792300423	163
1	832	112.244792300423	164
1	848	113.767864025544	165
1	848	113.767864025544	166
1	848	113.767864025544	167
1	864	114.944012927116	168
1	864	114.944012927116	169
1	864	114.944012927116	170
1	880	116.5397943444	171
1	880	116.5397943444	172
1	880	116.5397943444	173
1	896	118.534278641908	174
1	896	118.534278641908	175
1	896	118.534278641908	176
1	914	121.829086704675	177
1	914	121.829086704675	178
1	914	121.829086704675	179
1	923	122.882509700659	180
1	923	122.882509700659	181
1	923	122.882509700659	182
1	939	124.202646480419	183
1	939	124.202646480419	184
1	939	124.202646480419	185
1	955	125.274702470216	186
1	955	125.274702470216	187
1	955	125.274702470216	188
1	973	128.220113256148	189
1	973	128.220113256148	190
1	973	128.220113256148	191
1	989	129.674119964922	192
1	989	129.674119964922	193
1	989	129.674119964922	194
1	1005	131.185512142668	195
1	1005	131.185512142668	196
1	1005	131.185512142668	197
1	1023	134.137944075636	198
1	1023	134.137944075636	199
1	1023	134.137944075636	200
1	1043	138.945546642617	201
1	1043	138.945546642617	202
1	1043	138.945546642617	203
1	1061	141.573882415234	204
1	1061	141.573882415234	205
1	1061	141.573882415234	206
1	1077	142.875555204726	207
1	1077	142.875555204726	208
1	1077	142.875555204726	209
1	1093	143.975832524139	210
1	1093	143.975832524139	211
1	1093	143.975832524139	212
1	1109	145.464511254811	213
1	1109	145.464511254811	214
1	1109	145.464511254811	215
1	1118	147.413119169418	216
1	1118	147.413119169418	217
1	1118	147.413119169418	218
1	1136	150.750776148226	219
1	1136	150.750776148226	220
1	1136	150.750776148226	221
1	1152	152.001400944644	222
1	1152	152.001400944644	223
1	1152	152.001400944644	224
1	1168	153.788121272681	225
1	1168	153.788121272681	226
1	1168	153.788121272681	227
1	1184	155.44475818517	228
1	1184	155.44475818517	229
1	1184	155.44475818517	230
1	1202	157.581031707886	231
1	1202	157.581031707886	232
1	1202	157.581031707886	233
1	1218	158.857856327853	234
1	1218	158.857856327853	235
1	1218	158.857856327853	236
1	1236	161.478826573576	237
1	1236	161.478826573576	238
1	1236	161.478826573576	239
1	1252	162.937437154573	240
1	1252	162.937437154573	241
1	1252	162.937437154573	242
1	1270	165.800862565343	243
1	1270	165.800862565343	244
1	1270	165.800862565343	245
1	1286	167.217625573859	246
1	1286	167.217625573859	247
1	1286	167.217625573859	248
1	1292	168.328218913694	249
1	1292	168.328218913694	250
1	1292	168.328218913694	251
1	1308	169.737655355498	252
1	1308	169.737655355498	253
1	1308	169.737655355498	254
1	1324	171.103092848604	255
1	1324	171.103092848604	256
1	1324	171.103092848604	257
1	1330	172.440320880404	258
1	1330	172.440320880404	259
1	1330	172.440320880404	260
1	1346	174.101626090494	261
1	1346	174.101626090494	262
1	1346	174.101626090494	263
1	1362	175.428763798866	264
1	1362	175.428763798866	265
1	1362	175.428763798866	266
1	1374	176.896114611765	267
1	1374	176.896114611765	268
1	1374	176.896114611765	269
1	1392	180.151460674395	270
1	1392	180.151460674395	271
1	1392	180.151460674395	272
1	1408	181.50366168702	273
1	1408	181.50366168702	274
1	1408	181.50366168702	275
1	1414	182.900120830559	276
1	1414	182.900120830559	277
1	1414	182.900120830559	278
1	1430	184.75091302483	279
1	1430	184.75091302483	280
1	1430	184.75091302483	281
1	1446	186.303764985354	282
1	1446	186.303764985354	283
1	1446	186.303764985354	284
1	1466	190.605449164087	285
1	1466	190.605449164087	286
1	1466	190.605449164087	287
1	1484	193.183094353361	288
1	1484	193.183094353361	289
1	1484	193.183094353361	290
1	1500	194.21583069381	291
1	1500	194.21583069381	292
1	1500	194.21583069381	293
1	1516	195.890791678854	294
1	1516	195.890791678854	295
1	1516	195.890791678854	296
1	1534	199.460890759593	297
1	1534	199.460890759593	298
1	1534	199.460890759593	299
1	1550	200.571671220167	300
1	1550	200.571671220167	301
1	1550	200.571671220167	302
1	1568	204.253585790473	303
1	1568	204.253585790473	304
1	1568	204.253585790473	305
1	1584	205.931600420503	306
1	1584	205.931600420503	307
1	1584	205.931600420503	308
1	1602	209.008303524366	309
1	1602	209.008303524366	310
1	1602	209.008303524366	311
1	1620	211.678740463046	312
1	1620	211.678740463046	313
1	1620	211.678740463046	314
1	1636	212.995008567342	315
1	1636	212.995008567342	316
1	1636	212.995008567342	317
1	1652	214.585412839297	318
1	1652	214.585412839297	319
1	1652	214.585412839297	320
1	1668	215.874631880351	321
1	1668	215.874631880351	322
1	1668	215.874631880351	323
1	1684	217.042686298999	324
1	1684	217.042686298999	325
1	1684	217.042686298999	326
1	1700	218.805893515048	327
1	1700	218.805893515048	328
1	1700	218.805893515048	329
1	1713	220.33704693833	330
1	1713	220.33704693833	331
1	1713	220.33704693833	332
1	1728	223.481038003558	333
1	1728	223.481038003558	334
1	1728	223.481038003558	335
1	1744	225.466030706412	336
1	1744	225.466030706412	337
1	1744	225.466030706412	338
1	1759	228.465101381156	339
1	1759	228.465101381156	340
1	1759	228.465101381156	341
1	1775	230.427901831026	342
1	1775	230.427901831026	343
1	1775	230.427901831026	344
1	1788	231.803182663588	345
1	1788	231.803182663588	346
1	1788	231.803182663588	347
1	1804	233.536564178717	348
1	1804	233.536564178717	349
1	1804	233.536564178717	350
1	1822	236.887233761515	351
1	1822	236.887233761515	352
1	1822	236.887233761515	353
1	1838	238.091079162466	354
1	1838	238.091079162466	355
1	1838	238.091079162466	356
1	1854	239.374156098637	357
1	1854	239.374156098637	358
1	1854	239.374156098637	359
2	7	0.161397929952	0
2	7	0.161397929952	1
2	27	1.24707379422	2
2	27	1.24707379422	3
2	36	2.418009779956	4
2	36	2.418009779956	5
2	52	4.014327512276	6
2	52	4.014327512276	7
2	69	5.189191931642	8
2	69	5.189191931642	9
2	84	6.847357547792	10
2	84	6.847357547792	11
2	103	8.075340380173	12
2	103	8.075340380173	13
2	119	9.370096726095	14
2	119	9.370096726095	15
2	139	10.748006124704	16
2	139	10.748006124704	17
2	167	21.799189346237	18
2	167	21.799189346237	19
2	186	23.566066792499	20
2	186	23.566066792499	21
2	199	25.382415540484	22
2	199	25.382415540484	23
2	222	26.71266398769	24
2	222	26.71266398769	25
2	244	32.371119532623	26
2	244	32.371119532623	27
2	257	34.359847377728	28
2	257	34.359847377728	29
2	275	38.354464090076	30
2	275	38.354464090076	31
2	293	42.195726402131	32
2	293	42.195726402131	33
2	309	43.303624898796	34
2	309	43.303624898796	35
2	325	44.586108506332	36
2	325	44.586108506332	37
2	341	46.406964456956	38
2	341	46.406964456956	39
2	357	48.345585721436	40
2	357	48.345585721436	41
2	381	52.857916265767	42
2	381	52.857916265767	43
2	397	54.103187006618	44
2	397	54.103187006618	45
2	416	57.10527633052	46
2	416	57.10527633052	47
2	431	59.092094605526	48
2	431	59.092094605526	49
2	451	61.759549380593	50
2	451	61.759549380593	51
2	467	63.425833643768	52
2	467	63.425833643768	53
2	497	67.888809658549	54
2	497	67.888809658549	55
2	510	69.370413138159	56
2	510	69.370413138159	57
2	528	72.783315668024	58
2	528	72.783315668024	59
2	545	74.218907492309	60
2	545	74.218907492309	61
2	562	76.919070735584	62
2	562	76.919070735584	63
2	579	78.439540251329	64
2	579	78.439540251329	65
2	594	80.332951324345	66
2	594	80.332951324345	67
2	610	81.470668117915	68
2	610	81.470668117915	69
2	637	86.512579990186	70
2	637	86.512579990186	71
2	653	88.145083434991	72
2	653	88.145083434991	73
2	670	89.776876360731	74
2	670	89.776876360731	75
2	686	90.855439482823	76
2	686	90.855439482823	77
2	702	92.203932459748	78
2	702	92.203932459748	79
2	724	93.691265742349	80
2	724	93.691265742349	81
2	734	94.668165424647	82
2	734	94.668165424647	83
2	751	97.54443953638	84
2	751	97.54443953638	85
2	767	99.533721113696	86
2	767	99.533721113696	87
2	783	101.020248297447	88
2	783	101.020248297447	89
2	799	102.734931502581	90
2	799	102.734931502581	91
2	815	106.233352520873	92
2	815	106.233352520873	93
2	843	112.311388940579	94
2	843	112.311388940579	95
2	852	113.779547027973	96
2	852	113.779547027973	97
2	868	114.962141249296	98
2	868	114.962141249296	99
2	884	116.561758639202	100
2	884	116.561758639202	101
2	900	118.546064981963	102
2	900	118.546064981963	103
2	928	122.908812032311	104
2	928	122.908812032311	105
2	943	124.215048363606	106
2	943	124.215048363606	107
2	960	125.291845623453	108
2	960	125.291845623453	109
2	978	128.235657631057	110
2	978	128.235657631057	111
2	994	129.694598545996	112
2	994	129.694598545996	113
2	1010	131.208481465275	114
2	1010	131.208481465275	115
2	1028	134.155455337663	116
2	1028	134.155455337663	117
2	1048	138.969926832653	118
2	1048	138.969926832653	119
2	1065	141.587386305175	120
2	1065	141.587386305175	121
2	1088	142.928775862594	122
2	1088	142.928775862594	123
2	1097	144.010883605579	124
2	1097	144.010883605579	125
2	1113	145.478350719497	126
2	1113	145.478350719497	127
2	1122	147.423337564103	128
2	1122	147.423337564103	129
2	1147	150.786462601504	130
2	1147	150.786462601504	131
2	1156	152.016513743984	132
2	1156	152.016513743984	133
2	1172	153.800931336997	134
2	1172	153.800931336997	135
2	1188	155.460743286374	136
2	1188	155.460743286374	137
2	1209	157.623356699017	138
2	1209	157.623356699017	139
2	1229	158.929918630503	140
2	1229	158.929918630503	141
2	1240	161.48963219609	142
2	1240	161.48963219609	143
2	1263	162.987153619245	144
2	1263	162.987153619245	145
2	1274	165.825754574647	146
2	1274	165.825754574647	147
2	1297	168.347364296554	148
2	1297	168.347364296554	149
2	1313	169.755551010456	150
2	1313	169.755551010456	151
2	1334	172.460584116692	152
2	1334	172.460584116692	153
2	1357	174.140794155826	154
2	1357	174.140794155826	155
2	1366	175.447246982759	156
2	1366	175.447246982759	157
2	1382	176.931673464338	158
2	1382	176.931673464338	159
2	1396	180.169662526522	160
2	1396	180.169662526522	161
2	1418	182.910260157523	162
2	1418	182.910260157523	163
2	1435	184.774278973999	164
2	1435	184.774278973999	165
2	1450	186.328505403217	166
2	1450	186.328505403217	167
2	1474	190.65114812458	168
2	1474	190.65114812458	169
2	1489	193.193594116473	170
2	1489	193.193594116473	171
2	1511	194.279222303465	172
2	1511	194.279222303465	173
2	1527	195.956056573803	174
2	1527	195.956056573803	175
2	1539	199.477767637933	176
2	1539	199.477767637933	177
2	1555	200.583978950576	178
2	1555	200.583978950576	179
2	1572	204.275808752136	180
2	1572	204.275808752136	181
2	1592	205.958219258486	182
2	1592	205.958219258486	183
2	1613	209.059906695448	184
2	1613	209.059906695448	185
2	1625	211.695743521987	186
2	1625	211.695743521987	187
2	1640	213.009919961228	188
2	1640	213.009919961228	189
2	1656	214.604431682045	190
2	1656	214.604431682045	191
2	1675	215.904363796265	192
2	1675	215.904363796265	193
2	1688	217.057628910853	194
2	1688	217.057628910853	195
2	1732	223.497935093525	196
2	1732	223.497935093525	197
2	1763	228.481637188937	198
2	1763	228.481637188937	199
2	1792	231.818453283661	200
2	1792	231.818453283661	201
2	1811	233.566089498806	202
2	1811	233.566089498806	203
2	1826	236.908833463094	204
2	1826	236.908833463094	205
2	1849	238.15707506907	206
2	1849	238.15707506907	207
2	1861	239.405537825936	208
2	1861	239.405537825936	209
3	10	0.194059795375	0
3	10	0.194059795375	1
3	10	0.194059795375	2
3	23	1.233809741455	3
3	23	1.233809741455	4
3	23	1.233809741455	5
3	39	2.431343900401	6
3	39	2.431343900401	7
3	39	2.431343900401	8
3	56	4.029237272596	9
3	56	4.029237272596	10
3	56	4.029237272596	11
3	74	5.209350873728	12
3	74	5.209350873728	13
3	74	5.209350873728	14
3	90	6.863476656229	15
3	90	6.863476656229	16
3	90	6.863476656229	17
3	106	8.086253086713	18
3	106	8.086253086713	19
3	106	8.086253086713	20
3	120	9.374365485015	21
3	120	9.374365485015	22
3	120	9.374365485015	23
3	135	10.735384887082	24
3	135	10.735384887082	25
3	135	10.735384887082	26
3	170	21.816976825546	27
3	170	21.816976825546	28
3	170	21.816976825546	29
3	189	23.578969084734	30
3	189	23.578969084734	31
3	189	23.578969084734	32
3	205	25.394683011449	33
3	205	25.394683011449	34
3	205	25.394683011449	35
3	218	26.680869324302	36
3	218	26.680869324302	37
3	218	26.680869324302	38
3	247	32.393151308657	39
3	247	32.393151308657	40
3	247	32.393151308657	41
3	263	34.37244395451	42
3	263	34.37244395451	43
3	263	34.37244395451	44
3	281	38.396690367415	45
3	281	38.396690367415	46
3	281	38.396690367415	47
3	297	42.210933461267	48
3	297	42.210933461267	49
3	297	42.210933461267	50
3	315	43.32339071138	51
3	315	43.32339071138	52
3	315	43.32339071138	53
3	328	44.599491942905	54
3	328	44.599491942905	55
3	328	44.599491942905	56
3	344	46.419597097046	57
3	344	46.419597097046	58
3	344	46.419597097046	59
3	361	48.36136611331	60
3	361	48.36136611331	61
3	361	48.36136611331	62
3	387	52.875178875204	63
3	387	52.875178875204	64
3	387	52.875178875204	65
3	421	57.120398237657	66
3	421	57.120398237657	67
3	421	57.120398237657	68
3	434	59.108624399902	69
3	434	59.108624399902	70
3	434	59.108624399902	71
3	454	61.762416781273	72
3	454	61.762416781273	73
3	454	61.762416781273	74
3	472	63.436877000694	75
3	472	63.436877000694	76
3	472	63.436877000694	77
3	487	66.180209834233	78
3	487	66.180209834233	79
3	487	66.180209834233	80
3	500	67.934291181383	81
3	500	67.934291181383	82
3	500	67.934291181383	83
3	513	69.398040889685	84
3	513	69.398040889685	85
3	513	69.398040889685	86
3	534	72.819745293007	87
3	534	72.819745293007	88
3	534	72.819745293007	89
3	550	74.239619459979	90
3	550	74.239619459979	91
3	550	74.239619459979	92
3	568	76.944621764296	93
3	568	76.944621764296	94
3	568	76.944621764296	95
3	584	78.456721167698	96
3	584	78.456721167698	97
3	584	78.456721167698	98
3	600	80.358598560092	99
3	600	80.358598560092	100
3	600	80.358598560092	101
3	616	81.500959757573	102
3	616	81.500959757573	103
3	616	81.500959757573	104
3	640	86.539950497358	105
3	640	86.539950497358	106
3	640	86.539950497358	107
3	659	88.168939199063	108
3	659	88.168939199063	109
3	659	88.168939199063	110
3	675	89.79192251314	111
3	675	89.79192251314	112
3	675	89.79192251314	113
3	691	90.874622374646	114
3	691	90.874622374646	115
3	691	90.874622374646	116
3	707	92.218128291743	117
3	707	92.218128291743	118
3	707	92.218128291743	119
3	720	93.659730969261	120
3	720	93.659730969261	121
3	720	93.659730969261	122
3	737	94.67708724752	123
3	737	94.67708724752	124
3	737	94.67708724752	125
3	757	97.567910006334	126
3	757	97.567910006334	127
3	757	97.567910006334	128
3	770	99.548530951242	129
3	770	99.548530951242	130
3	770	99.548530951242	131
3	786	101.031128106652	132
3	786	101.031128106652	133
3	786	101.031128106652	134
3	802	102.756120457999	135
3	802	102.756120457999	136
3	802	102.756120457999	137
3	820	106.290143447925	138
3	820	106.290143447925	139
3	820	106.290143447925	140
3	839	112.290408394291	141
3	839	112.290408394291	142
3	839	112.290408394291	143
3	858	113.811778401747	144
3	858	113.811778401747	145
3	858	113.811778401747	146
3	871	114.978077479333	147
3	871	114.978077479333	148
3	871	114.978077479333	149
3	887	116.582583050678	150
3	887	116.582583050678	151
3	887	116.582583050678	152
3	906	118.569714411696	153
3	906	118.569714411696	154
3	906	118.569714411696	155
3	933	122.92234443276	156
3	933	122.92234443276	157
3	933	122.92234443276	158
3	947	124.228185327117	159
3	947	124.228185327117	160
3	947	124.228185327117	161
3	965	125.317475659965	162
3	965	125.317475659965	163
3	965	125.317475659965	164
3	983	128.268712004083	165
3	983	128.268712004083	166
3	983	128.268712004083	167
3	999	129.710315594794	168
3	999	129.710315594794	169
3	999	129.710315594794	170
3	1015	131.22796129443	171
3	1015	131.22796129443	172
3	1015	131.22796129443	173
3	1031	134.161304752027	174
3	1031	134.161304752027	175
3	1031	134.161304752027	176
3	1053	138.990613400102	177
3	1053	138.990613400102	178
3	1053	138.990613400102	179
3	1069	141.600137644321	180
3	1069	141.600137644321	181
3	1069	141.600137644321	182
3	1084	142.915630820357	183
3	1084	142.915630820357	184
3	1084	142.915630820357	185
3	1100	144.059700650306	186
3	1100	144.059700650306	187
3	1100	144.059700650306	188
3	1128	147.434316422444	189
3	1128	147.434316422444	190
3	1128	147.434316422444	191
3	1143	150.775023897753	192
3	1143	150.775023897753	193
3	1143	150.775023897753	194
3	1162	152.027966223374	195
3	1162	152.027966223374	196
3	1162	152.027966223374	197
3	1175	153.818323262035	198
3	1175	153.818323262035	199
3	1175	153.818323262035	200
3	1194	155.480335162786	201
3	1194	155.480335162786	202
3	1194	155.480335162786	203
3	1212	157.63705482622	204
3	1212	157.63705482622	205
3	1212	157.63705482622	206
3	1225	158.902614691353	207
3	1225	158.902614691353	208
3	1225	158.902614691353	209
3	1243	161.503553633426	210
3	1243	161.503553633426	211
3	1243	161.503553633426	212
3	1259	162.96883033576	213
3	1259	162.96883033576	214
3	1259	162.96883033576	215
3	1277	165.840307779783	216
3	1277	165.840307779783	217
3	1277	165.840307779783	218
3	1302	168.367644344115	219
3	1302	168.367644344115	220
3	1302	168.367644344115	221
3	1318	169.784864584191	222
3	1318	169.784864584191	223
3	1318	169.784864584191	224
3	1337	172.471008442683	225
3	1337	172.471008442683	226
3	1337	172.471008442683	227
3	1353	174.124789799731	228
3	1353	174.124789799731	229
3	1353	174.124789799731	230
3	1381	176.925440559436	231
3	1381	176.925440559436	232
3	1381	176.925440559436	233
3	1400	180.181724078136	234
3	1400	180.181724078136	235
3	1400	180.181724078136	236
3	1421	182.924775193042	237
3	1421	182.924775193042	238
3	1421	182.924775193042	239
3	1438	184.783514945209	240
3	1438	184.783514945209	241
3	1438	184.783514945209	242
3	1453	186.341679928934	243
3	1453	186.341679928934	244
3	1453	186.341679928934	245
3	1473	190.645893906118	246
3	1473	190.645893906118	247
3	1473	190.645893906118	248
3	1494	193.206777820279	249
3	1494	193.206777820279	250
3	1494	193.206777820279	251
3	1507	194.255662520642	252
3	1507	194.255662520642	253
3	1507	194.255662520642	254
3	1523	195.942807354193	255
3	1523	195.942807354193	256
3	1523	195.942807354193	257
3	1544	199.489500650657	258
3	1544	199.489500650657	259
3	1544	199.489500650657	260
3	1560	200.611547878008	261
3	1560	200.611547878008	262
3	1560	200.611547878008	263
3	1575	204.293148321521	264
3	1575	204.293148321521	265
3	1575	204.293148321521	266
3	1591	205.957798074733	267
3	1591	205.957798074733	268
3	1591	205.957798074733	269
3	1609	209.037245783481	270
3	1609	209.037245783481	271
3	1609	209.037245783481	272
3	1630	211.740143161357	273
3	1630	211.740143161357	274
3	1630	211.740143161357	275
3	1646	213.027443148027	276
3	1646	213.027443148027	277
3	1646	213.027443148027	278
3	1662	214.630339838183	279
3	1662	214.630339838183	280
3	1662	214.630339838183	281
3	1676	215.910708286229	282
3	1676	215.910708286229	283
3	1676	215.910708286229	284
3	1694	217.08004846712	285
3	1694	217.08004846712	286
3	1694	217.08004846712	287
3	1707	218.830539215047	288
3	1707	218.830539215047	289
3	1707	218.830539215047	290
3	1720	220.390172332557	291
3	1720	220.390172332557	292
3	1720	220.390172332557	293
3	1738	223.525584831349	294
3	1738	223.525584831349	295
3	1738	223.525584831349	296
3	1751	225.5044839289	297
3	1751	225.5044839289	298
3	1751	225.5044839289	299
3	1766	228.499828500487	300
3	1766	228.499828500487	301
3	1766	228.499828500487	302
3	1782	230.471923436444	303
3	1782	230.471923436444	304
3	1782	230.471923436444	305
3	1798	231.854186255068	306
3	1798	231.854186255068	307
3	1798	231.854186255068	308
3	1814	233.584932034523	309
3	1814	233.584932034523	310
3	1814	233.584932034523	311
3	1830	236.920726366822	312
3	1830	236.920726366822	313
3	1830	236.920726366822	314
3	1845	238.129504436622	315
3	1845	238.129504436622	316
3	1845	238.129504436622	317
3	1862	239.407590138506	318
3	1862	239.407590138506	319
3	1862	239.407590138506	320
4	20	1.217773526293	0
4	20	1.217773526293	1
4	43	2.449224315994	2
4	43	2.449224315994	3
4	55	4.028362966697	4
4	55	4.028362966697	5
4	68	5.188754720272	6
4	68	5.188754720272	7
4	85	6.851740618736	8
4	85	6.851740618736	9
4	100	8.061826862797	10
4	100	8.061826862797	11
4	116	9.359687821775	12
4	116	9.359687821775	13
4	132	10.708933061245	14
4	132	10.708933061245	15
4	150	13.935487049558	16
4	150	13.935487049558	17
4	174	21.839258818061	18
4	174	21.839258818061	19
4	183	23.554152537238	20
4	183	23.554152537238	21
4	200	25.382469008248	22
4	200	25.382469008248	23
4	215	26.655375627481	24
4	215	26.655375627481	25
4	241	32.36034923227	26
4	241	32.36034923227	27
4	258	34.359979859572	28
4	258	34.359979859572	29
4	278	38.372890913046	30
4	278	38.372890913046	31
4	294	42.204265873047	32
4	294	42.204265873047	33
4	310	43.308795210116	34
4	310	43.308795210116	35
4	332	44.627430833313	36
4	332	44.627430833313	37
4	345	46.422044917789	38
4	345	46.422044917789	39
4	360	48.357876325833	40
4	360	48.357876325833	41
4	382	52.863490050923	42
4	382	52.863490050923	43
4	400	54.118847011855	44
4	400	54.118847011855	45
4	415	57.104341162721	46
4	415	57.104341162721	47
4	450	61.751942759835	48
4	450	61.751942759835	49
4	466	63.421595244562	50
4	466	63.421595244562	51
4	484	66.16144081437	52
4	484	66.16144081437	53
4	517	69.418412284923	54
4	517	69.418412284923	55
4	529	72.78922784282	56
4	529	72.78922784282	57
4	544	74.217070774782	58
4	544	74.217070774782	59
4	565	76.931214328625	60
4	565	76.931214328625	61
4	578	78.432361453111	62
4	578	78.432361453111	63
4	597	80.348169856911	64
4	597	80.348169856911	65
4	611	81.479167181131	66
4	611	81.479167181131	67
4	626	83.124367419623	68
4	626	83.124367419623	69
4	644	86.55661966333	70
4	644	86.55661966333	71
4	654	88.151707966641	72
4	654	88.151707966641	73
4	669	89.766981405822	74
4	669	89.766981405822	75
4	685	90.8511479206	76
4	685	90.8511479206	77
4	701	92.203071515544	78
4	701	92.203071515544	79
4	717	93.627769159054	80
4	717	93.627769159054	81
4	733	94.666459833796	82
4	733	94.666459833796	83
4	752	97.552957525535	84
4	752	97.552957525535	85
4	774	99.596883954945	86
4	774	99.596883954945	87
4	790	101.04564791864	88
4	790	101.04564791864	89
4	814	106.228870798655	90
4	814	106.228870798655	91
4	836	112.266062525811	92
4	836	112.266062525811	93
4	855	113.799821111976	94
4	855	113.799821111976	95
4	872	114.986093596583	96
4	872	114.986093596583	97
4	891	116.60122864212	98
4	891	116.60122864212	99
4	901	118.550875424481	100
4	901	118.550875424481	101
4	918	121.849485794239	102
4	918	121.849485794239	103
4	927	122.907846071745	104
4	927	122.907846071745	105
4	944	124.222543550356	106
4	944	124.222543550356	107
4	959	125.286076821114	108
4	959	125.286076821114	109
4	977	128.230265415626	110
4	977	128.230265415626	111
4	993	129.692075467223	112
4	993	129.692075467223	113
4	1009	131.199700805433	114
4	1009	131.199700805433	115
4	1027	134.149657245624	116
4	1027	134.149657245624	117
4	1047	138.967378038153	118
4	1047	138.967378038153	119
4	1066	141.590274444533	120
4	1066	141.590274444533	121
4	1081	142.899920072667	122
4	1081	142.899920072667	123
4	1104	144.071063702657	124
4	1104	144.071063702657	125
4	1123	147.423587085233	126
4	1123	147.423587085233	127
4	1140	150.763479644537	128
4	1140	150.763479644537	129
4	1157	152.017573452848	130
4	1157	152.017573452848	131
4	1179	153.8376267371	132
4	1179	153.8376267371	133
4	1189	155.462237602972	134
4	1189	155.462237602972	135
4	1206	157.611392897735	136
4	1206	157.611392897735	137
4	1222	158.874591237669	138
4	1222	158.874591237669	139
4	1247	161.51358422771	140
4	1247	161.51358422771	141
4	1256	162.949096644948	142
4	1256	162.949096644948	143
4	1281	165.862515826628	144
4	1281	165.862515826628	145
4	1296	168.339351503422	146
4	1296	168.339351503422	147
4	1312	169.748631195418	148
4	1312	169.748631195418	149
4	1341	172.496948253443	150
4	1341	172.496948253443	151
4	1350	174.114606993033	152
4	1350	174.114606993033	153
4	1369	175.472160387206	154
4	1369	175.472160387206	155
4	1378	176.910583533603	156
4	1378	176.910583533603	157
4	1399	180.180064359535	158
4	1399	180.180064359535	159
4	1425	182.941514435688	160
4	1425	182.941514435688	161
4	1434	184.771345147421	162
4	1434	184.771345147421	163
4	1457	186.367081347206	164
4	1457	186.367081347206	165
4	1470	190.623302473348	166
4	1470	190.623302473348	167
4	1488	193.1931561819	168
4	1488	193.1931561819	169
4	1504	194.230116821361	170
4	1504	194.230116821361	171
4	1520	195.908979712025	172
4	1520	195.908979712025	173
4	1538	199.472419422082	174
4	1538	199.472419422082	175
4	1554	200.582259675769	176
4	1554	200.582259675769	177
4	1579	204.319516403015	178
4	1579	204.319516403015	179
4	1588	205.944260666102	180
4	1588	205.944260666102	181
4	1606	209.024942733159	182
4	1606	209.024942733159	183
4	1624	211.695204647246	184
4	1624	211.695204647246	185
4	1641	213.01129248619	186
4	1641	213.01129248619	187
4	1657	214.610780925647	188
4	1657	214.610780925647	189
4	1672	215.892737396625	190
4	1672	215.892737396625	191
4	1691	217.068903621371	192
4	1691	217.068903621371	193
4	1704	218.819552051963	194
4	1704	218.819552051963	195
4	1717	220.38007410311	196
4	1717	220.38007410311	197
4	1733	223.502398334571	198
4	1733	223.502398334571	199
4	1748	225.488404731551	200
4	1748	225.488404731551	201
4	1770	228.522705477846	202
4	1770	228.522705477846	203
4	1779	230.454730873377	204
4	1779	230.454730873377	205
4	1793	231.82166469419	206
4	1793	231.82166469419	207
4	1808	233.547108886016	208
4	1808	233.547108886016	209
4	1829	236.92066612951	210
4	1829	236.92066612951	211
4	1842	238.104564066659	212
4	1842	238.104564066659	213
4	1858	239.390273729813	214
4	1858	239.390273729813	215
5	26	1.243809741455	0
5	42	2.441343900401	1
5	93	6.873476656229	2
5	109	8.096253086713	3
5	125	9.384365485015	4
5	173	21.826976825546	5
5	192	23.588969084734	6
5	208	25.404683011449	7
5	221	26.690869324302	8
5	250	32.403151308657	9
5	266	34.38244395451	10
5	284	38.406690367415	11
5	302	42.220933461267	12
5	318	43.33339071138	13
5	331	44.609491942905	14
5	348	46.429597097046	15
5	366	48.37136611331	16
5	424	57.130398237657	17
5	437	59.118624399902	18
5	459	61.772416781273	19
5	475	63.446877000694	20
5	490	66.190209834233	21
5	503	67.944291181383	22
5	516	69.408040889685	23
5	553	74.249619459979	24
5	571	76.954621764296	25
5	587	78.466721167698	26
5	603	80.368598560092	27
5	619	81.510959757573	28
5	643	86.549950497358	29
5	662	88.178939199063	30
5	678	89.80192251314	31
5	694	90.884622374646	32
5	710	92.228128291743	33
5	742	94.68708724752	34
5	773	99.558530951242	35
5	789	101.041128106652	36
5	805	102.766120457999	37
5	823	106.300143447925	38
5	842	112.300408394291	39
5	861	113.821778401747	40
5	875	114.988077479333	41
5	890	116.592583050678	42
5	909	118.579714411696	43
5	936	122.93234443276	44
5	952	124.238185327117	45
5	968	125.327475659965	46
5	986	128.278712004083	47
5	1002	129.720315594794	48
5	1018	131.23796129443	49
5	1056	139.000613400102	50
5	1074	141.610137644321	51
5	1087	142.925630820357	52
5	1103	144.069700650306	53
5	1131	147.444316422444	54
5	1165	152.037966223374	55
5	1178	153.828323262035	56
5	1197	155.490335162786	57
5	1215	157.64705482622	58
5	1228	158.912614691353	59
5	1246	161.513553633426	60
5	1262	162.97883033576	61
5	1280	165.850307779783	62
5	1305	168.377644344115	63
5	1340	172.481008442683	64
5	1356	174.134789799731	65
5	1385	176.935440559436	66
5	1405	180.191724078136	67
5	1424	182.934775193042	68
5	1456	186.351679928934	69
5	1477	190.655893906118	70
5	1497	193.216777820279	71
5	1510	194.265662520642	72
5	1526	195.952807354193	73
5	1547	199.499500650657	74
5	1563	200.621547878008	75
5	1578	204.303148321521	76
5	1595	205.967798074733	77
5	1612	209.047245783481	78
5	1633	211.750143161357	79
5	1649	213.037443148027	80
5	1665	214.640339838183	81
5	1681	215.920708286229	82
5	1697	217.09004846712	83
5	1710	218.840539215047	84
5	1723	220.400172332557	85
5	1741	223.535584831349	86
5	1754	225.5144839289	87
5	1769	228.509828500487	88
5	1785	230.481923436444	89
5	1867	239.417590138506	90

