version 2
run General-0-20231008-05:34:47-14246
attr configname General
attr datetime 20231008-05:34:47
attr experiment General
attr inifile omnetpp.ini
attr iterationvars ""
attr iterationvarsf ""
attr measurement ""
attr network Reliability
attr processid 14246
attr repetition 0
attr replication #0
attr resultdir results
attr runnumber 0
attr seedset 0
param Reliability.node[*].transmissionTime "uniform(1s, 2s)"
param Reliability.node[*].delayTime "uniform(0.01s, 0.2s)"
param Reliability.node[*].processingTime exponential(0.01s)
param Reliability.node[*].lossProbability 0.2

vector 0 Reliability.node[0] txVector ETV
vector 1 Reliability.node[1] txVector ETV
vector 2 Reliability.node[3] txVector ETV
vector 3 Reliability.node[2] txVector ETV
vector 4 Reliability.node[4] txVector ETV
vector 5 Reliability.node[5] rxVector ETV
0	1	0.114274565438	0
0	17	1.707119181827	1
0	33	2.979775476344	2
0	49	4.348017013706	3
0	65	6.068649665294	4
0	81	7.285200022002	5
0	87	8.898263483848	6
0	103	10.868072552448	7
0	119	12.502346605603	8
0	121	14.125856711604	9
0	123	15.463864329113	10
0	139	17.138616651371	11
0	152	19.110561650321	12
0	168	20.39336860979	13
0	184	21.95997005825	14
0	197	23.091767920256	15
0	199	24.461576015996	16
0	215	25.608017779263	17
0	231	27.24693885942	18
0	247	28.922377936617	19
0	263	30.317247228772	20
0	265	32.195699419901	21
0	281	33.298562779865	22
0	297	34.439826682751	23
0	310	35.909075854422	24
0	326	37.757084081724	25
0	342	39.623466407723	26
0	348	40.677804393769	27
0	364	42.471502096235	28
0	380	44.048730681493	29
0	396	45.446951748879	30
0	398	46.504980911344	31
0	414	47.939397540252	32
0	430	49.393094379763	33
0	446	51.151473031687	34
0	462	52.94951986203	35
0	478	54.162831836921	36
0	487	55.749616182252	37
0	503	56.92452505448	38
0	519	57.954978020239	39
0	525	59.241893065703	40
0	541	60.797542302945	41
0	557	62.585084456328	42
0	573	64.293632605189	43
0	589	66.27866488563	44
0	605	67.39932188213	45
0	607	68.79882079906	46
0	623	70.10065167335	47
0	625	71.983511671733	48
0	627	73.234134391492	49
0	643	74.911546215957	50
0	645	76.503481379786	51
0	661	77.979958583677	52
0	677	79.489300649456	53
0	683	80.49898882311	54
0	699	82.278180793935	55
0	715	83.452292742749	56
0	721	84.777977509267	57
0	730	85.907389846939	58
0	746	87.365993803443	59
0	752	89.00205485996	60
0	768	90.798446334742	61
0	770	92.619213454502	62
0	776	94.528057165986	63
0	792	96.156955605449	64
0	808	97.512324455038	65
0	810	99.381812988159	66
0	812	100.835975387211	67
0	814	102.162676273922	68
0	827	103.395420406091	69
0	843	104.42788570219	70
0	859	105.473545344158	71
0	875	106.543992533426	72
0	891	108.366551980221	73
0	907	110.30383634412	74
0	923	111.793345666102	75
0	939	113.167590248941	76
0	955	114.905980586617	77
0	971	116.037832622028	78
0	984	117.137864674286	79
0	1000	119.034625830905	80
0	1016	120.345006656445	81
0	1032	121.598649178942	82
0	1048	122.80357286109	83
0	1064	123.811456963731	84
0	1066	125.433688025069	85
0	1072	126.71275596864	86
0	1088	128.289896215391	87
0	1104	130.25266652958	88
0	1120	131.694702159925	89
0	1136	133.313528330144	90
0	1145	135.143425700333	91
0	1161	136.459913619872	92
0	1177	137.605783774363	93
0	1193	139.08045175889	94
0	1209	140.677754696072	95
0	1225	141.987005984024	96
0	1227	143.579786255802	97
0	1229	144.934292315352	98
0	1245	146.591312091411	99
0	1261	148.26335314902	100
0	1277	149.285041872258	101
0	1293	151.221509968475	102
0	1299	152.410572624611	103
0	1312	153.500805606678	104
0	1324	154.971426508002	105
0	1340	156.088742074635	106
0	1342	157.487903220657	107
0	1358	158.919663345985	108
0	1374	160.324698956529	109
0	1376	161.959485282502	110
0	1392	163.918627532511	111
0	1408	165.109194450392	112
0	1410	166.330590897319	113
0	1412	167.430604959685	114
0	1414	168.695644660234	115
0	1430	169.761794120619	116
0	1446	170.96139025929	117
0	1448	172.857081553047	118
0	1464	174.249650335252	119
0	1480	175.614562169961	120
0	1493	176.661368523804	121
0	1509	178.638170328537	122
0	1525	180.360354347467	123
0	1541	182.028069238724	124
0	1557	183.259139291789	125
0	1573	184.794607547424	126
0	1575	186.041652764739	127
0	1591	187.078213753491	128
0	1607	188.080890822071	129
0	1623	189.786038360172	130
0	1639	191.242923006029	131
0	1655	192.920982418195	132
0	1671	194.635358154154	133
0	1687	195.692678772923	134
0	1703	197.238596370755	135
0	1705	199.110898881531	136
0	1721	200.26755236912	137
0	1734	201.506889372677	138
0	1750	202.763806021618	139
0	1762	204.210682980096	140
0	1778	205.500596428601	141
0	1790	207.366541897956	142
0	1806	208.864721462674	143
0	1822	209.92410464709	144
0	1838	210.980981909515	145
0	1854	212.295555203067	146
0	1870	213.334112445203	147
0	1883	215.154134885486	148
0	1885	216.501832873871	149
0	1901	217.744470200113	150
0	1917	219.063387520921	151
0	1933	220.66746506708	152
0	1949	222.15866610951	153
0	1951	223.948435725255	154
0	1967	225.415555128671	155
0	1983	227.00641267731	156
0	1999	228.067407683778	157
0	2015	229.965363620391	158
0	2031	231.20973969375	159
0	2047	232.256531480311	160
0	2063	233.390480371269	161
0	2079	234.463234449581	162
0	2081	235.507250811283	163
0	2097	237.04305273209	164
0	2103	238.373653257575	165
1	3	0.142870607559	0
1	3	0.142870607559	1
1	3	0.142870607559	2
1	19	1.72361364531	3
1	19	1.72361364531	4
1	19	1.72361364531	5
1	35	3.021277175631	6
1	35	3.021277175631	7
1	35	3.021277175631	8
1	51	4.366740225656	9
1	51	4.366740225656	10
1	51	4.366740225656	11
1	67	6.080102445567	12
1	67	6.080102445567	13
1	67	6.080102445567	14
1	83	7.318463532619	15
1	83	7.318463532619	16
1	83	7.318463532619	17
1	89	8.918851825163	18
1	89	8.918851825163	19
1	89	8.918851825163	20
1	105	10.910002018869	21
1	105	10.910002018869	22
1	105	10.910002018869	23
1	125	15.477679887547	24
1	125	15.477679887547	25
1	125	15.477679887547	26
1	141	17.169669864379	27
1	141	17.169669864379	28
1	141	17.169669864379	29
1	154	19.121842217974	30
1	154	19.121842217974	31
1	154	19.121842217974	32
1	170	20.406452758191	33
1	170	20.406452758191	34
1	170	20.406452758191	35
1	186	21.982569396351	36
1	186	21.982569396351	37
1	186	21.982569396351	38
1	201	24.480006846317	39
1	201	24.480006846317	40
1	201	24.480006846317	41
1	217	25.640232848248	42
1	217	25.640232848248	43
1	217	25.640232848248	44
1	233	27.259812964181	45
1	233	27.259812964181	46
1	233	27.259812964181	47
1	249	28.942022472272	48
1	249	28.942022472272	49
1	249	28.942022472272	50
1	267	32.206668647447	51
1	267	32.206668647447	52
1	267	32.206668647447	53
1	283	33.309585986014	54
1	283	33.309585986014	55
1	283	33.309585986014	56
1	299	34.468224010602	57
1	299	34.468224010602	58
1	299	34.468224010602	59
1	312	35.935543045435	60
1	312	35.935543045435	61
1	312	35.935543045435	62
1	328	37.804183687643	63
1	328	37.804183687643	64
1	328	37.804183687643	65
1	344	39.635697799804	66
1	344	39.635697799804	67
1	344	39.635697799804	68
1	350	40.69033945082	69
1	350	40.69033945082	70
1	350	40.69033945082	71
1	366	42.484218776938	72
1	366	42.484218776938	73
1	366	42.484218776938	74
1	382	44.061085927227	75
1	382	44.061085927227	76
1	382	44.061085927227	77
1	400	46.518717609288	78
1	400	46.518717609288	79
1	400	46.518717609288	80
1	416	47.957088738263	81
1	416	47.957088738263	82
1	416	47.957088738263	83
1	432	49.406951256703	84
1	432	49.406951256703	85
1	432	49.406951256703	86
1	448	51.163526509374	87
1	448	51.163526509374	88
1	448	51.163526509374	89
1	464	52.966822138682	90
1	464	52.966822138682	91
1	464	52.966822138682	92
1	480	54.192772228934	93
1	480	54.192772228934	94
1	480	54.192772228934	95
1	489	55.771806175704	96
1	489	55.771806175704	97
1	489	55.771806175704	98
1	505	56.948268484624	99
1	505	56.948268484624	100
1	505	56.948268484624	101
1	521	57.976287205031	102
1	521	57.976287205031	103
1	521	57.976287205031	104
1	527	59.251985895947	105
1	527	59.251985895947	106
1	527	59.251985895947	107
1	543	60.816868421498	108
1	543	60.816868421498	109
1	543	60.816868421498	110
1	559	62.601978801706	111
1	559	62.601978801706	112
1	559	62.601978801706	113
1	575	64.317639362159	114
1	575	64.317639362159	115
1	575	64.317639362159	116
1	591	66.328141218306	117
1	591	66.328141218306	118
1	591	66.328141218306	119
1	609	68.823747120702	120
1	609	68.823747120702	121
1	609	68.823747120702	122
1	629	73.260764049299	123
1	629	73.260764049299	124
1	629	73.260764049299	125
1	647	76.520174408506	126
1	647	76.520174408506	127
1	647	76.520174408506	128
1	663	77.990861956118	129
1	663	77.990861956118	130
1	663	77.990861956118	131
1	679	79.52156148935	132
1	679	79.52156148935	133
1	679	79.52156148935	134
1	685	80.534913309198	135
1	685	80.534913309198	136
1	685	80.534913309198	137
1	701	82.294629878847	138
1	701	82.294629878847	139
1	701	82.294629878847	140
1	717	83.463882862917	141
1	717	83.463882862917	142
1	717	83.463882862917	143
1	723	84.796626890361	144
1	723	84.796626890361	145
1	723	84.796626890361	146
1	732	85.93026946669	147
1	732	85.93026946669	148
1	732	85.93026946669	149
1	748	87.378738438663	150
1	748	87.378738438663	151
1	748	87.378738438663	152
1	754	89.044037409728	153
1	754	89.044037409728	154
1	754	89.044037409728	155
1	772	92.64611580405	156
1	772	92.64611580405	157
1	772	92.64611580405	158
1	778	94.543139360527	159
1	778	94.543139360527	160
1	778	94.543139360527	161
1	794	96.171367153556	162
1	794	96.171367153556	163
1	794	96.171367153556	164
1	816	102.182207499305	165
1	816	102.182207499305	166
1	816	102.182207499305	167
1	829	103.41409902479	168
1	829	103.41409902479	169
1	829	103.41409902479	170
1	845	104.441597319398	171
1	845	104.441597319398	172
1	845	104.441597319398	173
1	861	105.495051970087	174
1	861	105.495051970087	175
1	861	105.495051970087	176
1	877	106.567395293046	177
1	877	106.567395293046	178
1	877	106.567395293046	179
1	893	108.3795257155	180
1	893	108.3795257155	181
1	893	108.3795257155	182
1	909	110.336048485952	183
1	909	110.336048485952	184
1	909	110.336048485952	185
1	925	111.807267278998	186
1	925	111.807267278998	187
1	925	111.807267278998	188
1	941	113.185695180413	189
1	941	113.185695180413	190
1	941	113.185695180413	191
1	957	114.928287775127	192
1	957	114.928287775127	193
1	957	114.928287775127	194
1	973	116.080085782865	195
1	973	116.080085782865	196
1	973	116.080085782865	197
1	986	117.15308578733	198
1	986	117.15308578733	199
1	986	117.15308578733	200
1	1002	119.049294474341	201
1	1002	119.049294474341	202
1	1002	119.049294474341	203
1	1018	120.360915008649	204
1	1018	120.360915008649	205
1	1018	120.360915008649	206
1	1034	121.612830095531	207
1	1034	121.612830095531	208
1	1034	121.612830095531	209
1	1050	122.818235831354	210
1	1050	122.818235831354	211
1	1050	122.818235831354	212
1	1068	125.446042083734	213
1	1068	125.446042083734	214
1	1068	125.446042083734	215
1	1074	126.734639260243	216
1	1074	126.734639260243	217
1	1074	126.734639260243	218
1	1090	128.300066371628	219
1	1090	128.300066371628	220
1	1090	128.300066371628	221
1	1106	130.27000522925	222
1	1106	130.27000522925	223
1	1106	130.27000522925	224
1	1122	131.706134646963	225
1	1122	131.706134646963	226
1	1122	131.706134646963	227
1	1138	133.358038431438	228
1	1138	133.358038431438	229
1	1138	133.358038431438	230
1	1147	135.156256424691	231
1	1147	135.156256424691	232
1	1147	135.156256424691	233
1	1163	136.474002795164	234
1	1163	136.474002795164	235
1	1163	136.474002795164	236
1	1179	137.617821628185	237
1	1179	137.617821628185	238
1	1179	137.617821628185	239
1	1195	139.100923681445	240
1	1195	139.100923681445	241
1	1195	139.100923681445	242
1	1211	140.692916730621	243
1	1211	140.692916730621	244
1	1211	140.692916730621	245
1	1231	144.954856725294	246
1	1231	144.954856725294	247
1	1231	144.954856725294	248
1	1247	146.604414052644	249
1	1247	146.604414052644	250
1	1247	146.604414052644	251
1	1263	148.274829467852	252
1	1263	148.274829467852	253
1	1263	148.274829467852	254
1	1279	149.323307111964	255
1	1279	149.323307111964	256
1	1279	149.323307111964	257
1	1295	151.254412540674	258
1	1295	151.254412540674	259
1	1295	151.254412540674	260
1	1301	152.430226982608	261
1	1301	152.430226982608	262
1	1301	152.430226982608	263
1	1314	153.512036711227	264
1	1314	153.512036711227	265
1	1314	153.512036711227	266
1	1326	154.984590781914	267
1	1326	154.984590781914	268
1	1326	154.984590781914	269
1	1344	157.507436079969	270
1	1344	157.507436079969	271
1	1344	157.507436079969	272
1	1360	158.934861565434	273
1	1360	158.934861565434	274
1	1360	158.934861565434	275
1	1378	161.970575601138	276
1	1378	161.970575601138	277
1	1378	161.970575601138	278
1	1394	163.928820613563	279
1	1394	163.928820613563	280
1	1394	163.928820613563	281
1	1416	168.706323219014	282
1	1416	168.706323219014	283
1	1416	168.706323219014	284
1	1432	169.777467801816	285
1	1432	169.777467801816	286
1	1432	169.777467801816	287
1	1450	172.888149474306	288
1	1450	172.888149474306	289
1	1450	172.888149474306	290
1	1466	174.262673616632	291
1	1466	174.262673616632	292
1	1466	174.262673616632	293
1	1482	175.659874583966	294
1	1482	175.659874583966	295
1	1482	175.659874583966	296
1	1495	176.68074860496	297
1	1495	176.68074860496	298
1	1495	176.68074860496	299
1	1511	178.648504876128	300
1	1511	178.648504876128	301
1	1511	178.648504876128	302
1	1527	180.378837015565	303
1	1527	180.378837015565	304
1	1527	180.378837015565	305
1	1543	182.045809959151	306
1	1543	182.045809959151	307
1	1543	182.045809959151	308
1	1559	183.274898521518	309
1	1559	183.274898521518	310
1	1559	183.274898521518	311
1	1577	186.056877057172	312
1	1577	186.056877057172	313
1	1577	186.056877057172	314
1	1593	187.115023704388	315
1	1593	187.115023704388	316
1	1593	187.115023704388	317
1	1609	188.099955834843	318
1	1609	188.099955834843	319
1	1609	188.099955834843	320
1	1625	189.796927402421	321
1	1625	189.796927402421	322
1	1625	189.796927402421	323
1	1641	191.254485932454	324
1	1641	191.254485932454	325
1	1641	191.254485932454	326
1	1657	192.932692936385	327
1	1657	192.932692936385	328
1	1657	192.932692936385	329
1	1673	194.64619263433	330
1	1673	194.64619263433	331
1	1673	194.64619263433	332
1	1689	195.711565813199	333
1	1689	195.711565813199	334
1	1689	195.711565813199	335
1	1707	199.132422991725	336
1	1707	199.132422991725	337
1	1707	199.132422991725	338
1	1723	200.287518461912	339
1	1723	200.287518461912	340
1	1723	200.287518461912	341
1	1736	201.537568995829	342
1	1736	201.537568995829	343
1	1736	201.537568995829	344
1	1752	202.779481347456	345
1	1752	202.779481347456	346
1	1752	202.779481347456	347
1	1764	204.229303596369	348
1	1764	204.229303596369	349
1	1764	204.229303596369	350
1	1780	205.516418239132	351
1	1780	205.516418239132	352
1	1780	205.516418239132	353
1	1792	207.396700072599	354
1	1792	207.396700072599	355
1	1792	207.396700072599	356
1	1808	208.895598365305	357
1	1808	208.895598365305	358
1	1808	208.895598365305	359
1	1824	209.973470708388	360
1	1824	209.973470708388	361
1	1824	209.973470708388	362
1	1840	211.001691459979	363
1	1840	211.001691459979	364
1	1840	211.001691459979	365
1	1856	212.32038810505	366
1	1856	212.32038810505	367
1	1856	212.32038810505	368
1	1872	213.347653333204	369
1	1872	213.347653333204	370
1	1872	213.347653333204	371
1	1887	216.524965737424	372
1	1887	216.524965737424	373
1	1887	216.524965737424	374
1	1903	217.791195795965	375
1	1903	217.791195795965	376
1	1903	217.791195795965	377
1	1919	219.080231710337	378
1	1919	219.080231710337	379
1	1919	219.080231710337	380
1	1935	220.678216078789	381
1	1935	220.678216078789	382
1	1935	220.678216078789	383
1	1953	223.959221467525	384
1	1953	223.959221467525	385
1	1953	223.959221467525	386
1	1969	225.437596340272	387
1	1969	225.437596340272	388
1	1969	225.437596340272	389
1	1985	227.035338590601	390
1	1985	227.035338590601	391
1	1985	227.035338590601	392
1	2001	228.102698998178	393
1	2001	228.102698998178	394
1	2001	228.102698998178	395
1	2017	229.976690810689	396
1	2017	229.976690810689	397
1	2017	229.976690810689	398
1	2033	231.28201401543	399
1	2033	231.28201401543	400
1	2033	231.28201401543	401
1	2049	232.29327907425	402
1	2049	232.29327907425	403
1	2049	232.29327907425	404
1	2065	233.410822083657	405
1	2065	233.410822083657	406
1	2065	233.410822083657	407
1	2083	235.523278950327	408
1	2083	235.523278950327	409
1	2083	235.523278950327	410
1	2099	237.053737738908	411
1	2099	237.053737738908	412
1	2099	237.053737738908	413
1	2105	238.388993490982	414
1	2105	238.388993490982	415
1	2105	238.388993490982	416
2	7	0.158381092426	0
2	7	0.158381092426	1
2	24	1.742007973839	2
2	24	1.742007973839	3
2	39	3.05168609779	4
2	39	3.05168609779	5
2	55	4.384118498574	6
2	55	4.384118498574	7
2	78	6.152600868474	8
2	78	6.152600868474	9
2	93	8.933285865449	10
2	93	8.933285865449	11
2	109	10.921761154323	12
2	109	10.921761154323	13
2	130	15.492280027124	14
2	130	15.492280027124	15
2	165	19.180304026803	16
2	165	19.180304026803	17
2	181	20.466011888725	18
2	181	20.466011888725	19
2	208	24.522758278094	20
2	208	24.522758278094	21
2	225	25.668967447047	22
2	225	25.668967447047	23
2	237	27.281606793517	24
2	237	27.281606793517	25
2	254	28.955611744431	26
2	254	28.955611744431	27
2	271	32.225209444803	28
2	271	32.225209444803	29
2	287	33.335994961793	30
2	287	33.335994961793	31
2	316	35.945880913291	32
2	316	35.945880913291	33
2	339	37.867536048008	34
2	339	37.867536048008	35
2	354	40.709710837997	36
2	354	40.709710837997	37
2	371	42.505584741891	38
2	371	42.505584741891	39
2	386	44.099976683146	40
2	386	44.099976683146	41
2	404	46.538332005004	42
2	404	46.538332005004	43
2	420	47.973428038457	44
2	420	47.973428038457	45
2	436	49.420876986985	46
2	436	49.420876986985	47
2	453	51.180131540171	48
2	453	51.180131540171	49
2	468	52.979147388866	50
2	468	52.979147388866	51
2	484	54.210057467361	52
2	484	54.210057467361	53
2	493	55.783830763341	54
2	493	55.783830763341	55
2	509	56.96072046555	56
2	509	56.96072046555	57
2	531	59.265294994759	58
2	531	59.265294994759	59
2	547	60.829504192626	60
2	547	60.829504192626	61
2	570	62.670840560181	62
2	570	62.670840560181	63
2	579	64.33077934114	64
2	579	64.33077934114	65
2	598	66.374230628356	66
2	598	66.374230628356	67
2	613	68.834296194428	68
2	613	68.834296194428	69
2	634	73.278914232608	70
2	634	73.278914232608	71
2	652	76.541671822383	72
2	652	76.541671822383	73
2	668	78.015944108434	74
2	668	78.015944108434	75
2	689	80.545714097757	76
2	689	80.545714097757	77
2	706	82.311763721675	78
2	706	82.311763721675	79
2	727	84.830767054666	80
2	727	84.830767054666	81
2	737	85.945826055822	82
2	737	85.945826055822	83
2	762	89.084768161956	84
2	762	89.084768161956	85
2	782	94.558656396653	86
2	782	94.558656396653	87
2	798	96.183415676227	88
2	798	96.183415676227	89
2	820	102.192364790543	90
2	820	102.192364790543	91
2	833	103.424220117241	92
2	833	103.424220117241	93
2	849	104.45833675384	94
2	849	104.45833675384	95
2	866	105.516013895697	96
2	866	105.516013895697	97
2	884	106.595036166968	98
2	884	106.595036166968	99
2	897	108.413059063181	100
2	897	108.413059063181	101
2	913	110.346649769643	102
2	913	110.346649769643	103
2	929	111.819152926241	104
2	929	111.819152926241	105
2	948	113.215891025445	106
2	948	113.215891025445	107
2	962	114.941752108402	108
2	962	114.941752108402	109
2	977	116.090280675795	110
2	977	116.090280675795	111
2	990	117.166274197814	112
2	990	117.166274197814	113
2	1007	119.069119757768	114
2	1007	119.069119757768	115
2	1022	120.375199418937	116
2	1022	120.375199418937	117
2	1038	121.626014025692	118
2	1038	121.626014025692	119
2	1054	122.832716711038	120
2	1054	122.832716711038	121
2	1078	126.749563674007	122
2	1078	126.749563674007	123
2	1095	128.321621118915	124
2	1095	128.321621118915	125
2	1117	130.343736163015	126
2	1117	130.343736163015	127
2	1127	131.725855136648	128
2	1127	131.725855136648	129
2	1151	135.168005527292	130
2	1151	135.168005527292	131
2	1170	136.495925317585	132
2	1170	136.495925317585	133
2	1190	137.682048206869	134
2	1190	137.682048206869	135
2	1199	139.146063469675	136
2	1199	139.146063469675	137
2	1216	140.710142752996	138
2	1216	140.710142752996	139
2	1235	144.969919364965	140
2	1235	144.969919364965	141
2	1251	146.628877128366	142
2	1251	146.628877128366	143
2	1268	148.299661201932	144
2	1268	148.299661201932	145
2	1283	149.342375743037	146
2	1283	149.342375743037	147
2	1321	153.556228076254	148
2	1321	153.556228076254	149
2	1330	154.995197524916	150
2	1330	154.995197524916	151
2	1348	157.534718673699	152
2	1348	157.534718673699	153
2	1371	158.991801113914	154
2	1371	158.991801113914	155
2	1389	162.05787679443	156
2	1389	162.05787679443	157
2	1398	163.951569128088	158
2	1398	163.951569128088	159
2	1427	168.771244435062	160
2	1427	168.771244435062	161
2	1436	169.788197927254	162
2	1436	169.788197927254	163
2	1458	172.923171054131	164
2	1458	172.923171054131	165
2	1471	174.279890204109	166
2	1471	174.279890204109	167
2	1486	175.671841790852	168
2	1486	175.671841790852	169
2	1499	176.694321122913	170
2	1499	176.694321122913	171
2	1522	178.692668606954	172
2	1522	178.692668606954	173
2	1534	180.436983995562	174
2	1534	180.436983995562	175
2	1551	182.081417898299	176
2	1551	182.081417898299	177
2	1566	183.303404377984	178
2	1566	183.303404377984	179
2	1581	186.069708075462	180
2	1581	186.069708075462	181
2	1598	187.131628443331	182
2	1598	187.131628443331	183
2	1613	188.114293496738	184
2	1613	188.114293496738	185
2	1636	189.834724366115	186
2	1636	189.834724366115	187
2	1645	191.265151983826	188
2	1645	191.265151983826	189
2	1661	192.943922094267	190
2	1661	192.943922094267	191
2	1678	194.668747141045	192
2	1678	194.668747141045	193
2	1693	195.726837501096	194
2	1693	195.726837501096	195
2	1711	199.164069263482	196
2	1711	199.164069263482	197
2	1740	201.552017980519	198
2	1740	201.552017980519	199
2	1759	202.82772704402	200
2	1759	202.82772704402	201
2	1769	204.250841234003	202
2	1769	204.250841234003	203
2	1785	205.533288195491	204
2	1785	205.533288195491	205
2	1796	207.410432269883	206
2	1796	207.410432269883	207
2	1819	208.951115006378	208
2	1819	208.951115006378	209
2	1828	210.003382864793	210
2	1828	210.003382864793	211
2	1844	211.012216720883	212
2	1844	211.012216720883	213
2	1861	212.340728163277	214
2	1861	212.340728163277	215
2	1876	213.36166209534	216
2	1876	213.36166209534	217
2	1892	216.547646456663	218
2	1892	216.547646456663	219
2	1907	217.803177809171	220
2	1907	217.803177809171	221
2	1923	219.105590358995	222
2	1923	219.105590358995	223
2	1939	220.701489308514	224
2	1939	220.701489308514	225
2	1958	223.978163467427	226
2	1958	223.978163467427	227
2	1973	225.46555290966	228
2	1973	225.46555290966	229
2	1989	227.046366410921	230
2	1989	227.046366410921	231
2	2006	228.125035430954	232
2	2006	228.125035430954	233
2	2021	229.987827790973	234
2	2021	229.987827790973	235
2	2038	231.306007411054	236
2	2038	231.306007411054	237
2	2053	232.305329023991	238
2	2053	232.305329023991	239
2	2069	233.425129802788	240
2	2069	233.425129802788	241
2	2087	235.533524671785	242
2	2087	235.533524671785	243
2	2109	238.401643212339	244
2	2109	238.401643212339	245
3	8	0.160742618959	0
3	8	0.160742618959	1
3	23	1.741140386443	2
3	23	1.741140386443	3
3	46	3.093927787957	4
3	46	3.093927787957	5
3	59	4.405684430436	6
3	59	4.405684430436	7
3	71	6.099716254958	8
3	71	6.099716254958	9
3	100	8.961596505694	10
3	100	8.961596505694	11
3	110	10.922345034057	12
3	110	10.922345034057	13
3	129	15.489868693512	14
3	129	15.489868693512	15
3	145	17.217289137224	16
3	145	17.217289137224	17
3	158	19.138398680818	18
3	158	19.138398680818	19
3	174	20.441308581761	20
3	174	20.441308581761	21
3	190	21.995644573589	22
3	190	21.995644573589	23
3	205	24.503294425055	24
3	205	24.503294425055	25
3	221	25.656159088523	26
3	221	25.656159088523	27
3	238	27.291161268681	28
3	238	27.291161268681	29
3	253	28.952216270085	30
3	253	28.952216270085	31
3	272	32.22560593823	32
3	272	32.22560593823	33
3	288	33.341835132586	34
3	288	33.341835132586	35
3	303	34.498483098773	36
3	303	34.498483098773	37
3	317	35.947050955537	38
3	317	35.947050955537	39
3	332	37.816806980735	40
3	332	37.816806980735	41
3	358	40.729184893704	42
3	358	40.729184893704	43
3	370	42.497328454988	44
3	370	42.497328454988	45
3	393	44.161138259816	46
3	393	44.161138259816	47
3	411	46.566184555426	48
3	411	46.566184555426	49
3	421	47.979630770964	50
3	421	47.979630770964	51
3	437	49.427329757458	52
3	437	49.427329757458	53
3	452	51.179616955501	54
3	452	51.179616955501	55
3	475	53.022649168914	56
3	475	53.022649168914	57
3	494	55.79013995811	58
3	494	55.79013995811	59
3	516	56.997536533964	60
3	516	56.997536533964	61
3	535	59.277364183092	62
3	535	59.277364183092	63
3	554	60.85945763127	64
3	554	60.85945763127	65
3	563	62.630879818687	66
3	563	62.630879818687	67
3	586	64.36951792531	68
3	586	64.36951792531	69
3	595	66.357960121717	70
3	595	66.357960121717	71
3	614	68.835168375816	72
3	614	68.835168375816	73
3	633	73.276220626447	74
3	633	73.276220626447	75
3	651	76.536265053059	76
3	651	76.536265053059	77
3	667	78.012802089824	78
3	667	78.012802089824	79
3	692	80.560997487689	80
3	692	80.560997487689	81
3	705	82.310258130865	82
3	705	82.310258130865	83
3	736	85.941250661916	84
3	736	85.941250661916	85
3	758	89.061037666089	86
3	758	89.061037666089	87
3	789	94.605221956067	88
3	789	94.605221956067	89
3	805	96.22250309077	90
3	805	96.22250309077	91
3	834	103.42550378196	92
3	834	103.42550378196	93
3	850	104.461779495186	94
3	850	104.461779495186	95
3	865	105.507876437207	96
3	865	105.507876437207	97
3	881	106.581866692072	98
3	881	106.581866692072	99
3	900	108.424254272559	100
3	900	108.424254272559	101
3	916	110.357752843252	102
3	916	110.357752843252	103
3	930	111.819982836915	104
3	930	111.819982836915	105
3	945	113.205746336899	106
3	945	113.205746336899	107
3	961	114.939022838901	108
3	961	114.939022838901	109
3	997	117.200279870439	110
3	997	117.200279870439	111
3	1006	119.059563280536	112
3	1006	119.059563280536	113
3	1029	120.407642621221	114
3	1029	120.407642621221	115
3	1039	121.630778823892	116
3	1039	121.630778823892	117
3	1055	122.836401758242	118
3	1055	122.836401758242	119
3	1079	126.757518162634	120
3	1079	126.757518162634	121
3	1094	128.315876458183	122
3	1094	128.315876458183	123
3	1110	130.296438761602	124
3	1110	130.296438761602	125
3	1126	131.724001478118	126
3	1126	131.724001478118	127
3	1142	133.369272526153	128
3	1142	133.369272526153	129
3	1152	135.169823587218	130
3	1152	135.169823587218	131
3	1167	136.484798496715	132
3	1167	136.484798496715	133
3	1183	137.650655568529	134
3	1183	137.650655568529	135
3	1206	139.181443505224	136
3	1206	139.181443505224	137
3	1215	140.705640242885	138
3	1215	140.705640242885	139
3	1236	144.975620629888	140
3	1236	144.975620629888	141
3	1252	146.636468060682	142
3	1252	146.636468060682	143
3	1267	148.292210835277	144
3	1267	148.292210835277	145
3	1290	149.372266460375	146
3	1290	149.372266460375	147
3	1305	152.442991859449	148
3	1305	152.442991859449	149
3	1318	153.529137414684	150
3	1318	153.529137414684	151
3	1331	154.997273012847	152
3	1331	154.997273012847	153
3	1355	157.569776666463	154
3	1355	157.569776666463	155
3	1364	158.957376655004	156
3	1364	158.957376655004	157
3	1382	162.002768556356	158
3	1382	162.002768556356	159
3	1399	163.953546742188	160
3	1399	163.953546742188	161
3	1420	168.72093547679	162
3	1420	168.72093547679	163
3	1437	169.791058758644	164
3	1437	169.791058758644	165
3	1454	172.900290296253	166
3	1454	172.900290296253	167
3	1470	174.274911504353	168
3	1470	174.274911504353	169
3	1500	176.697833965714	170
3	1500	176.697833965714	171
3	1515	178.658518719254	172
3	1515	178.658518719254	173
3	1531	180.417846105977	174
3	1531	180.417846105977	175
3	1547	182.057625751328	176
3	1547	182.057625751328	177
3	1563	183.290465548159	178
3	1563	183.290465548159	179
3	1582	186.075275392186	180
3	1582	186.075275392186	181
3	1597	187.127905836067	182
3	1597	187.127905836067	183
3	1617	188.140819806232	184
3	1617	188.140819806232	185
3	1629	189.808120051121	186
3	1629	189.808120051121	187
3	1652	191.314427697736	188
3	1652	191.314427697736	189
3	1662	192.951999671951	190
3	1662	192.951999671951	191
3	1677	194.659658304421	192
3	1677	194.659658304421	193
3	1694	195.734781714261	194
3	1694	195.734781714261	195
3	1718	199.19218831868	196
3	1718	199.19218831868	197
3	1727	200.301668027739	198
3	1727	200.301668027739	199
3	1741	201.561871189312	200
3	1741	201.561871189312	201
3	1756	202.793023333597	202
3	1756	202.793023333597	203
3	1768	204.242075630754	204
3	1768	204.242075630754	205
3	1784	205.530353063102	206
3	1784	205.530353063102	207
3	1799	207.421103988649	208
3	1799	207.421103988649	209
3	1812	208.919116586166	210
3	1812	208.919116586166	211
3	1835	210.035673698627	212
3	1835	210.035673698627	213
3	1845	211.020007889506	214
3	1845	211.020007889506	215
3	1860	212.33310634024	216
3	1860	212.33310634024	217
3	1891	216.538688555255	218
3	1891	216.538688555255	219
3	1908	217.804632549815	220
3	1908	217.804632549815	221
3	1930	219.135624162365	222
3	1930	219.135624162365	223
3	1940	220.709350061632	224
3	1940	220.709350061632	225
3	1957	223.972848017655	226
3	1957	223.972848017655	227
3	1974	225.468297763654	228
3	1974	225.468297763654	229
3	1993	227.058689021444	230
3	1993	227.058689021444	231
3	2005	228.119158317714	232
3	2005	228.119158317714	233
3	2022	229.995421201206	234
3	2022	229.995421201206	235
3	2037	231.300896856452	236
3	2037	231.300896856452	237
3	2054	232.310020756545	238
3	2054	232.310020756545	239
3	2070	233.433529944851	240
3	2070	233.433529944851	241
3	2091	235.546281717622	242
3	2091	235.546281717622	243
3	2112	238.416350175477	244
3	2112	238.416350175477	245
4	13	0.173232374063	0
4	13	0.173232374063	1
4	13	0.173232374063	2
4	29	1.769224079086	3
4	29	1.769224079086	4
4	29	1.769224079086	5
4	42	3.077738493361	6
4	42	3.077738493361	7
4	42	3.077738493361	8
4	58	4.400535445594	9
4	58	4.400535445594	10
4	58	4.400535445594	11
4	74	6.119311734732	12
4	74	6.119311734732	13
4	74	6.119311734732	14
4	96	8.947075485092	15
4	96	8.947075485092	16
4	96	8.947075485092	17
4	115	10.940480312859	18
4	115	10.940480312859	19
4	115	10.940480312859	20
4	133	15.500005339296	21
4	133	15.500005339296	22
4	133	15.500005339296	23
4	148	17.240731589946	24
4	148	17.240731589946	25
4	148	17.240731589946	26
4	161	19.169641052788	27
4	161	19.169641052788	28
4	161	19.169641052788	29
4	177	20.452176286584	30
4	177	20.452176286584	31
4	177	20.452176286584	32
4	193	22.013692547587	33
4	193	22.013692547587	34
4	193	22.013692547587	35
4	209	24.527404669148	36
4	209	24.527404669148	37
4	209	24.527404669148	38
4	224	25.667394354997	39
4	224	25.667394354997	40
4	224	25.667394354997	41
4	243	27.302385142358	42
4	243	27.302385142358	43
4	243	27.302385142358	44
4	259	28.965612917411	45
4	259	28.965612917411	46
4	259	28.965612917411	47
4	277	32.269934799596	48
4	277	32.269934799596	49
4	277	32.269934799596	50
4	293	33.351935696776	51
4	293	33.351935696776	52
4	293	33.351935696776	53
4	306	34.518042763012	54
4	306	34.518042763012	55
4	306	34.518042763012	56
4	322	35.967835298954	57
4	322	35.967835298954	58
4	322	35.967835298954	59
4	335	37.855653098256	60
4	335	37.855653098256	61
4	335	37.855653098256	62
4	357	40.720034406043	63
4	357	40.720034406043	64
4	357	40.720034406043	65
4	376	42.516242240757	66
4	376	42.516242240757	67
4	376	42.516242240757	68
4	389	44.115993473011	69
4	389	44.115993473011	70
4	389	44.115993473011	71
4	407	46.548581888537	72
4	407	46.548581888537	73
4	407	46.548581888537	74
4	426	47.994307082793	75
4	426	47.994307082793	76
4	426	47.994307082793	77
4	442	49.440792029914	78
4	442	49.440792029914	79
4	442	49.440792029914	80
4	458	51.219061758275	81
4	458	51.219061758275	82
4	458	51.219061758275	83
4	471	53.002257112548	84
4	471	53.002257112548	85
4	471	53.002257112548	86
4	499	55.801473364343	87
4	499	55.801473364343	88
4	499	55.801473364343	89
4	512	56.978754383177	90
4	512	56.978754383177	91
4	512	56.978754383177	92
4	534	59.27729941671	93
4	534	59.27729941671	94
4	534	59.27729941671	95
4	550	60.846282212647	96
4	550	60.846282212647	97
4	550	60.846282212647	98
4	566	62.641013071135	99
4	566	62.641013071135	100
4	566	62.641013071135	101
4	582	64.342251591513	102
4	582	64.342251591513	103
4	582	64.342251591513	104
4	599	66.383513065321	105
4	599	66.383513065321	106
4	599	66.383513065321	107
4	617	68.84443666034	108
4	617	68.84443666034	109
4	617	68.84443666034	110
4	639	73.290985412273	111
4	639	73.290985412273	112
4	639	73.290985412273	113
4	657	76.565413475635	114
4	657	76.565413475635	115
4	657	76.565413475635	116
4	673	78.03423899603	117
4	673	78.03423899603	118
4	673	78.03423899603	119
4	695	80.577145094761	120
4	695	80.577145094761	121
4	695	80.577145094761	122
4	711	82.32181098672	123
4	711	82.32181098672	124
4	711	82.32181098672	125
4	742	85.963277799754	126
4	742	85.963277799754	127
4	742	85.963277799754	128
4	761	89.077148241702	129
4	761	89.077148241702	130
4	761	89.077148241702	131
4	785	94.581664770928	132
4	785	94.581664770928	133
4	785	94.581664770928	134
4	801	96.201100302001	135
4	801	96.201100302001	136
4	801	96.201100302001	137
4	823	102.212858212202	138
4	823	102.212858212202	139
4	823	102.212858212202	140
4	839	103.438309541222	141
4	839	103.438309541222	142
4	839	103.438309541222	143
4	855	104.472927033115	144
4	855	104.472927033115	145
4	855	104.472927033115	146
4	871	105.537113822914	147
4	871	105.537113822914	148
4	871	105.537113822914	149
4	885	106.596933924211	150
4	885	106.596933924211	151
4	885	106.596933924211	152
4	901	108.424349448213	153
4	901	108.424349448213	154
4	901	108.424349448213	155
4	917	110.357858083606	156
4	917	110.357858083606	157
4	917	110.357858083606	158
4	935	111.832666139056	159
4	935	111.832666139056	160
4	935	111.832666139056	161
4	949	113.220035455257	162
4	949	113.220035455257	163
4	949	113.220035455257	164
4	967	114.963661922936	165
4	967	114.963661922936	166
4	967	114.963661922936	167
4	980	116.103494078824	168
4	980	116.103494078824	169
4	980	116.103494078824	170
4	993	117.181411053947	171
4	993	117.181411053947	172
4	993	117.181411053947	173
4	1012	119.095354411844	174
4	1012	119.095354411844	175
4	1012	119.095354411844	176
4	1025	120.390090503043	177
4	1025	120.390090503043	178
4	1025	120.390090503043	179
4	1044	121.641085841622	180
4	1044	121.641085841622	181
4	1044	121.641085841622	182
4	1060	122.847924499687	183
4	1060	122.847924499687	184
4	1060	122.847924499687	185
4	1084	126.769982118655	186
4	1084	126.769982118655	187
4	1084	126.769982118655	188
4	1098	128.32994058685	189
4	1098	128.32994058685	190
4	1098	128.32994058685	191
4	1113	130.323973242785	192
4	1113	130.323973242785	193
4	1113	130.323973242785	194
4	1132	131.759556655285	195
4	1132	131.759556655285	196
4	1132	131.759556655285	197
4	1157	135.187116985373	198
4	1157	135.187116985373	199
4	1157	135.187116985373	200
4	1173	136.515876300299	201
4	1173	136.515876300299	202
4	1173	136.515876300299	203
4	1186	137.668183265049	204
4	1186	137.668183265049	205
4	1186	137.668183265049	206
4	1202	139.160038260474	207
4	1202	139.160038260474	208
4	1202	139.160038260474	209
4	1221	140.741981556844	210
4	1221	140.741981556844	211
4	1221	140.741981556844	212
4	1241	145.021673801007	213
4	1241	145.021673801007	214
4	1241	145.021673801007	215
4	1255	146.64205482178	216
4	1255	146.64205482178	217
4	1255	146.64205482178	218
4	1271	148.307889712208	219
4	1271	148.307889712208	220
4	1271	148.307889712208	221
4	1286	149.357480694664	222
4	1286	149.357480694664	223
4	1286	149.357480694664	224
4	1308	152.472623092345	225
4	1308	152.472623092345	226
4	1308	152.472623092345	227
4	1336	155.019782499454	228
4	1336	155.019782499454	229
4	1336	155.019782499454	230
4	1351	157.555859821064	231
4	1351	157.555859821064	232
4	1351	157.555859821064	233
4	1367	158.972479246508	234
4	1367	158.972479246508	235
4	1367	158.972479246508	236
4	1385	162.040449556933	237
4	1385	162.040449556933	238
4	1385	162.040449556933	239
4	1404	163.964090524852	240
4	1404	163.964090524852	241
4	1404	163.964090524852	242
4	1423	168.755148843254	243
4	1423	168.755148843254	244
4	1423	168.755148843254	245
4	1442	169.812101820526	246
4	1442	169.812101820526	247
4	1442	169.812101820526	248
4	1457	172.914824430436	249
4	1457	172.914824430436	250
4	1457	172.914824430436	251
4	1476	174.291138812687	252
4	1476	174.291138812687	253
4	1476	174.291138812687	254
4	1489	175.683706287194	255
4	1489	175.683706287194	256
4	1489	175.683706287194	257
4	1505	176.709687343743	258
4	1505	176.709687343743	259
4	1505	176.709687343743	260
4	1518	178.672349399925	261
4	1518	178.672349399925	262
4	1518	178.672349399925	263
4	1537	180.450416977393	264
4	1537	180.450416977393	265
4	1537	180.450416977393	266
4	1550	182.074220779329	267
4	1550	182.074220779329	268
4	1550	182.074220779329	269
4	1569	183.31344391385	270
4	1569	183.31344391385	271
4	1569	183.31344391385	272
4	1587	186.107088308415	273
4	1587	186.107088308415	274
4	1587	186.107088308415	275
4	1603	187.16785669855	276
4	1603	187.16785669855	277
4	1603	187.16785669855	278
4	1616	188.134909029901	279
4	1616	188.134909029901	280
4	1616	188.134909029901	281
4	1632	189.820141620484	282
4	1632	189.820141620484	283
4	1632	189.820141620484	284
4	1648	191.277487120886	285
4	1648	191.277487120886	286
4	1648	191.277487120886	287
4	1667	192.97319513924	288
4	1667	192.97319513924	289
4	1667	192.97319513924	290
4	1681	194.675759012334	291
4	1681	194.675759012334	292
4	1681	194.675759012334	293
4	1699	195.748976106727	294
4	1699	195.748976106727	295
4	1699	195.748976106727	296
4	1714	199.180676414416	297
4	1714	199.180676414416	298
4	1714	199.180676414416	299
4	1730	200.344689867264	300
4	1730	200.344689867264	301
4	1730	200.344689867264	302
4	1744	201.569625146537	303
4	1744	201.569625146537	304
4	1744	201.569625146537	305
4	1774	204.266810408521	306
4	1774	204.266810408521	307
4	1774	204.266810408521	308
4	1802	207.437083817157	309
4	1802	207.437083817157	310
4	1802	207.437083817157	311
4	1815	208.939883172655	312
4	1815	208.939883172655	313
4	1815	208.939883172655	314
4	1831	210.022015350236	315
4	1831	210.022015350236	316
4	1831	210.022015350236	317
4	1850	211.047544529679	318
4	1850	211.047544529679	319
4	1850	211.047544529679	320
4	1864	212.347157072532	321
4	1864	212.347157072532	322
4	1864	212.347157072532	323
4	1879	213.378855063063	324
4	1879	213.378855063063	325
4	1879	213.378855063063	326
4	1895	216.553663255029	327
4	1895	216.553663255029	328
4	1895	216.553663255029	329
4	1913	217.815500862812	330
4	1913	217.815500862812	331
4	1913	217.815500862812	332
4	1926	219.121733161781	333
4	1926	219.121733161781	334
4	1926	219.121733161781	335
4	1945	220.725222115345	336
4	1945	220.725222115345	337
4	1945	220.725222115345	338
4	1961	223.982945322714	339
4	1961	223.982945322714	340
4	1961	223.982945322714	341
4	1979	225.48089386954	342
4	1979	225.48089386954	343
4	1979	225.48089386954	344
4	1992	227.056782032109	345
4	1992	227.056782032109	346
4	1992	227.056782032109	347
4	2011	228.137003315615	348
4	2011	228.137003315615	349
4	2011	228.137003315615	350
4	2027	230.013674648041	351
4	2027	230.013674648041	352
4	2027	230.013674648041	353
4	2043	231.324526589769	354
4	2043	231.324526589769	355
4	2043	231.324526589769	356
4	2057	232.316706674426	357
4	2057	232.316706674426	358
4	2057	232.316706674426	359
4	2075	233.46053723716	360
4	2075	233.46053723716	361
4	2075	233.46053723716	362
4	2090	235.545750228155	363
4	2090	235.545750228155	364
4	2090	235.545750228155	365
4	2115	238.438161118593	366
4	2115	238.438161118593	367
4	2115	238.438161118593	368
5	16	0.183232374063	0
5	45	3.087738493361	1
5	62	4.410535445594	2
5	77	6.129311734732	3
5	99	8.957075485092	4
5	118	10.950480312859	5
5	151	17.250731589946	6
5	164	19.179641052788	7
5	196	22.023692547587	8
5	214	24.537404669148	9
5	228	25.677394354997	10
5	246	27.312385142358	11
5	262	28.975612917411	12
5	280	32.279934799596	13
5	296	33.361935696776	14
5	309	34.528042763012	15
5	338	37.865653098256	16
5	361	40.730034406043	17
5	379	42.526242240757	18
5	392	44.125993473011	19
5	410	46.558581888537	20
5	429	48.004307082793	21
5	445	49.450792029914	22
5	461	51.229061758275	23
5	474	53.012257112548	24
5	502	55.811473364343	25
5	515	56.988754383177	26
5	538	59.28729941671	27
5	553	60.856282212647	28
5	604	66.393513065321	29
5	676	78.04423899603	30
5	698	80.587145094761	31
5	765	89.087148241702	32
5	788	94.591664770928	33
5	804	96.211100302001	34
5	826	102.222858212202	35
5	842	103.448309541222	36
5	858	104.482927033115	37
5	874	105.547113822914	38
5	890	106.606933924211	39
5	922	110.367858083606	40
5	938	111.842666139056	41
5	954	113.230035455257	42
5	970	114.973661922936	43
5	983	116.113494078824	44
5	996	117.191411053947	45
5	1015	119.105354411844	46
5	1028	120.400090503043	47
5	1047	121.651085841622	48
5	1063	122.857924499687	49
5	1087	126.779982118655	50
5	1103	128.33994058685	51
5	1116	130.333973242785	52
5	1135	131.769556655285	53
5	1189	137.678183265049	54
5	1224	140.751981556844	55
5	1244	145.031673801007	56
5	1276	148.317889712208	57
5	1311	152.482623092345	58
5	1339	155.029782499454	59
5	1354	157.565859821064	60
5	1388	162.050449556933	61
5	1407	163.974090524852	62
5	1426	168.765148843254	63
5	1445	169.822101820526	64
5	1461	172.924824430436	65
5	1479	174.301138812687	66
5	1492	175.693706287194	67
5	1508	176.719687343743	68
5	1521	178.682349399925	69
5	1540	180.460416977393	70
5	1554	182.084220779329	71
5	1572	183.32344391385	72
5	1590	186.117088308415	73
5	1606	187.17785669855	74
5	1620	188.144909029901	75
5	1635	189.830141620484	76
5	1651	191.287487120886	77
5	1670	192.98319513924	78
5	1686	194.685759012334	79
5	1702	195.758976106727	80
5	1717	199.190676414416	81
5	1733	200.354689867264	82
5	1749	201.579625146537	83
5	1777	204.276810408521	84
5	1805	207.447083817157	85
5	1834	210.032015350236	86
5	1853	211.057544529679	87
5	1869	212.357157072532	88
5	1882	213.388855063063	89
5	1900	216.563663255029	90
5	1916	217.825500862812	91
5	1929	219.131733161781	92
5	1948	220.735222115345	93
5	1966	223.992945322714	94
5	1982	225.49089386954	95
5	1996	227.066782032109	96
5	2030	230.023674648041	97
5	2046	231.334526589769	98
5	2078	233.47053723716	99
5	2094	235.555750228155	100
5	2118	238.448161118593	101

