version 2
run General-1-20231008-05:34:47-14246
attr configname General
attr datetime 20231008-05:34:47
attr experiment General
attr inifile omnetpp.ini
attr iterationvars ""
attr iterationvarsf ""
attr measurement ""
attr network Reliability
attr processid 14246
attr repetition 1
attr replication #1
attr resultdir results
attr runnumber 1
attr seedset 1
param Reliability.node[*].transmissionTime "uniform(1s, 2s)"
param Reliability.node[*].delayTime "uniform(0.01s, 0.2s)"
param Reliability.node[*].processingTime exponential(0.01s)
param Reliability.node[*].lossProbability 0.2

vector 0 Reliability.node[0] txVector ETV
vector 1 Reliability.node[1] txVector ETV
vector 2 Reliability.node[3] txVector ETV
vector 3 Reliability.node[4] txVector ETV
vector 4 Reliability.node[5] rxVector ETV
vector 5 Reliability.node[2] txVector ETV
0	1	0.089234179703	0
0	17	2.086418987836	1
0	33	4.021958060448	2
0	49	5.479162869628	3
0	65	7.344183114942	4
0	78	8.755970993897	5
0	94	10.506115306288	6
0	110	11.799729449561	7
0	123	12.853091993954	8
0	139	14.803030127546	9
0	155	16.686155599196	10
0	171	18.257164161306	11
0	180	20.009952511525	12
0	196	21.124698481409	13
0	212	22.127568806175	14
0	228	23.143390047017	15
0	244	24.209390220584	16
0	260	25.237696709696	17
0	276	26.823455977605	18
0	285	28.686997830288	19
0	287	29.840336314288	20
0	289	31.777526640219	21
0	291	33.69393651339	22
0	300	35.47589497606	23
0	312	36.547869259144	24
0	328	37.743298739313	25
0	334	38.900090133889	26
0	346	40.386435240392	27
0	362	41.76657641621	28
0	364	42.976750428441	29
0	366	44.729505986792	30
0	382	45.796042469216	31
0	398	46.862003557968	32
0	414	48.811019879186	33
0	430	50.360567798491	34
0	432	51.866229968264	35
0	441	52.887754776401	36
0	457	53.993146026626	37
0	473	55.017030119549	38
0	489	56.96986124397	39
0	505	58.55870118004	40
0	521	59.813403927374	41
0	537	60.888127820219	42
0	553	62.128345452833	43
0	569	63.402245777777	44
0	578	64.70104600175	45
0	580	66.434188533227	46
0	596	67.953200162041	47
0	598	69.9360172787	48
0	614	71.11763013492	49
0	630	72.342670088519	50
0	642	73.842254259043	51
0	655	75.458939327976	52
0	671	77.139379394824	53
0	680	78.449707232999	54
0	696	80.316315504141	55
0	712	82.115930766683	56
0	728	83.912519443897	57
0	744	85.887259808719	58
0	760	87.04765499069	59
0	776	88.489559268929	60
0	792	89.54648870288	61
0	808	90.927504827618	62
0	824	92.392506309902	63
0	840	94.195469546715	64
0	853	95.338892595262	65
0	869	97.297592499179	66
0	885	99.289043068073	67
0	887	100.395254353413	68
0	899	101.675939144918	69
0	901	103.291243376795	70
0	917	105.129047244441	71
0	919	106.768106218547	72
0	921	108.257805827892	73
0	937	110.14718057623	74
0	946	111.648816805685	75
0	959	113.161109503245	76
0	975	114.466907743251	77
0	991	116.361604351902	78
0	1007	118.248103835739	79
0	1023	120.104576899091	80
0	1025	121.503730296975	81
0	1034	122.779200484397	82
0	1050	123.95392063109	83
0	1056	124.986346956229	84
0	1069	126.438080104653	85
0	1085	127.604108584466	86
0	1101	129.043896651015	87
0	1117	130.67941381282	88
0	1119	132.034922091643	89
0	1121	133.431721201752	90
0	1137	135.294632923676	91
0	1139	137.102331956968	92
0	1155	138.207000566766	93
0	1171	140.012611889167	94
0	1187	141.536887792291	95
0	1199	142.719482080897	96
0	1215	144.640179425364	97
0	1231	145.709663946533	98
0	1233	147.482498378844	99
0	1249	148.889629020241	100
0	1265	150.792860130665	101
0	1281	151.868877711824	102
0	1297	152.945046933486	103
0	1313	154.51360115118	104
0	1315	156.200164331241	105
0	1331	158.120111558937	106
0	1347	159.966034681421	107
0	1363	161.174825422351	108
0	1379	162.701639516397	109
0	1381	163.763479595889	110
0	1397	165.468363901485	111
0	1410	166.660791454256	112
0	1412	168.104908561685	113
0	1428	169.933043923347	114
0	1444	171.810404396268	115
0	1460	173.415883395939	116
0	1462	174.933743446485	117
0	1464	176.128209256918	118
0	1480	177.976148645046	119
0	1492	179.965488703807	120
0	1508	181.826700344334	121
0	1524	183.318245493925	122
0	1530	184.61246118264	123
0	1546	185.626553475509	124
0	1548	187.033036349459	125
0	1564	188.680806978025	126
0	1566	190.001126308112	127
0	1582	191.983617251158	128
0	1598	193.341128415779	129
0	1614	195.19648483291	130
0	1630	196.805316001528	131
0	1646	197.980052313886	132
0	1662	199.207349855106	133
0	1664	200.855662616321	134
0	1680	202.025603332675	135
0	1696	203.187114098228	136
0	1712	204.696727395875	137
0	1728	206.645026570771	138
0	1744	208.494996462835	139
0	1760	209.917749124698	140
0	1762	211.296329717504	141
0	1764	212.484523980532	142
0	1780	214.231528808482	143
0	1782	215.460733841525	144
0	1798	216.894617217712	145
0	1811	218.249570070652	146
0	1827	220.096082645122	147
0	1843	221.196734392436	148
0	1845	222.935733461406	149
0	1861	224.39647591871	150
0	1877	226.145618547804	151
0	1893	227.148206035492	152
0	1909	228.756800672158	153
0	1911	230.09935811267	154
0	1927	231.516407207705	155
0	1929	233.066197515584	156
0	1931	234.813579581331	157
0	1947	236.549636041166	158
0	1963	237.655370264433	159
0	1979	238.702888216477	160
1	3	0.126198958082	0
1	3	0.126198958082	1
1	3	0.126198958082	2
1	19	2.115147224505	3
1	19	2.115147224505	4
1	19	2.115147224505	5
1	35	4.037591512761	6
1	35	4.037591512761	7
1	35	4.037591512761	8
1	51	5.506832381814	9
1	51	5.506832381814	10
1	51	5.506832381814	11
1	67	7.356383983389	12
1	67	7.356383983389	13
1	67	7.356383983389	14
1	80	8.810944100581	15
1	80	8.810944100581	16
1	80	8.810944100581	17
1	96	10.519508925167	18
1	96	10.519508925167	19
1	96	10.519508925167	20
1	112	11.818265369991	21
1	112	11.818265369991	22
1	112	11.818265369991	23
1	125	12.869885612191	24
1	125	12.869885612191	25
1	125	12.869885612191	26
1	141	14.820812564738	27
1	141	14.820812564738	28
1	141	14.820812564738	29
1	157	16.706312193723	30
1	157	16.706312193723	31
1	157	16.706312193723	32
1	173	18.288479245624	33
1	173	18.288479245624	34
1	173	18.288479245624	35
1	182	20.049808204418	36
1	182	20.049808204418	37
1	182	20.049808204418	38
1	198	21.144299468742	39
1	198	21.144299468742	40
1	198	21.144299468742	41
1	214	22.164081332891	42
1	214	22.164081332891	43
1	214	22.164081332891	44
1	230	23.16747393566	45
1	230	23.16747393566	46
1	230	23.16747393566	47
1	246	24.222216649421	48
1	246	24.222216649421	49
1	246	24.222216649421	50
1	262	25.282628437049	51
1	262	25.282628437049	52
1	262	25.282628437049	53
1	278	26.847204444551	54
1	278	26.847204444551	55
1	278	26.847204444551	56
1	293	33.713516210544	57
1	293	33.713516210544	58
1	293	33.713516210544	59
1	302	35.520091542047	60
1	302	35.520091542047	61
1	302	35.520091542047	62
1	314	36.566576672745	63
1	314	36.566576672745	64
1	314	36.566576672745	65
1	330	37.753486248343	66
1	330	37.753486248343	67
1	330	37.753486248343	68
1	336	38.919412542999	69
1	336	38.919412542999	70
1	336	38.919412542999	71
1	348	40.404441411107	72
1	348	40.404441411107	73
1	348	40.404441411107	74
1	368	44.742521296763	75
1	368	44.742521296763	76
1	368	44.742521296763	77
1	384	45.819325213327	78
1	384	45.819325213327	79
1	384	45.819325213327	80
1	400	46.90199616666	81
1	400	46.90199616666	82
1	400	46.90199616666	83
1	416	48.847081328306	84
1	416	48.847081328306	85
1	416	48.847081328306	86
1	434	51.905789356817	87
1	434	51.905789356817	88
1	434	51.905789356817	89
1	443	52.904747956407	90
1	443	52.904747956407	91
1	443	52.904747956407	92
1	459	54.036879943775	93
1	459	54.036879943775	94
1	459	54.036879943775	95
1	475	55.029494154779	96
1	475	55.029494154779	97
1	475	55.029494154779	98
1	491	56.980354583442	99
1	491	56.980354583442	100
1	491	56.980354583442	101
1	507	58.569559536088	102
1	507	58.569559536088	103
1	507	58.569559536088	104
1	523	59.823775440834	105
1	523	59.823775440834	106
1	523	59.823775440834	107
1	539	60.898362233662	108
1	539	60.898362233662	109
1	539	60.898362233662	110
1	555	62.138445953438	111
1	555	62.138445953438	112
1	555	62.138445953438	113
1	571	63.420026720069	114
1	571	63.420026720069	115
1	571	63.420026720069	116
1	582	66.458923798032	117
1	582	66.458923798032	118
1	582	66.458923798032	119
1	600	69.962722898362	120
1	600	69.962722898362	121
1	600	69.962722898362	122
1	616	71.136607569521	123
1	616	71.136607569521	124
1	616	71.136607569521	125
1	632	72.365711175906	126
1	632	72.365711175906	127
1	632	72.365711175906	128
1	644	73.854915632571	129
1	644	73.854915632571	130
1	644	73.854915632571	131
1	657	75.470637925259	132
1	657	75.470637925259	133
1	657	75.470637925259	134
1	673	77.15437067569	135
1	673	77.15437067569	136
1	673	77.15437067569	137
1	682	78.489625828932	138
1	682	78.489625828932	139
1	682	78.489625828932	140
1	698	80.326667333607	141
1	698	80.326667333607	142
1	698	80.326667333607	143
1	714	82.131839312484	144
1	714	82.131839312484	145
1	714	82.131839312484	146
1	730	83.93264207628	147
1	730	83.93264207628	148
1	730	83.93264207628	149
1	746	85.910949745074	150
1	746	85.910949745074	151
1	746	85.910949745074	152
1	762	87.066367624447	153
1	762	87.066367624447	154
1	762	87.066367624447	155
1	778	88.506662532744	156
1	778	88.506662532744	157
1	778	88.506662532744	158
1	794	89.570345980561	159
1	794	89.570345980561	160
1	794	89.570345980561	161
1	810	90.966983576178	162
1	810	90.966983576178	163
1	810	90.966983576178	164
1	826	92.414439952504	165
1	826	92.414439952504	166
1	826	92.414439952504	167
1	842	94.206285844462	168
1	842	94.206285844462	169
1	842	94.206285844462	170
1	855	95.392276761511	171
1	855	95.392276761511	172
1	855	95.392276761511	173
1	871	97.322711083549	174
1	871	97.322711083549	175
1	871	97.322711083549	176
1	889	100.420225031802	177
1	889	100.420225031802	178
1	889	100.420225031802	179
1	903	103.313150830006	180
1	903	103.313150830006	181
1	903	103.313150830006	182
1	923	108.288561141129	183
1	923	108.288561141129	184
1	923	108.288561141129	185
1	939	110.171978512693	186
1	939	110.171978512693	187
1	939	110.171978512693	188
1	948	111.686767026977	189
1	948	111.686767026977	190
1	948	111.686767026977	191
1	961	113.192906141368	192
1	961	113.192906141368	193
1	961	113.192906141368	194
1	977	114.479195374447	195
1	977	114.479195374447	196
1	977	114.479195374447	197
1	993	116.380145594834	198
1	993	116.380145594834	199
1	993	116.380145594834	200
1	1009	118.259179772977	201
1	1009	118.259179772977	202
1	1009	118.259179772977	203
1	1027	121.514260521016	204
1	1027	121.514260521016	205
1	1027	121.514260521016	206
1	1036	122.797656846576	207
1	1036	122.797656846576	208
1	1036	122.797656846576	209
1	1052	123.96490312412	210
1	1052	123.96490312412	211
1	1052	123.96490312412	212
1	1058	125.001053952265	213
1	1058	125.001053952265	214
1	1058	125.001053952265	215
1	1071	126.457883253961	216
1	1071	126.457883253961	217
1	1071	126.457883253961	218
1	1087	127.623616220314	219
1	1087	127.623616220314	220
1	1087	127.623616220314	221
1	1103	129.054274583208	222
1	1103	129.054274583208	223
1	1103	129.054274583208	224
1	1123	133.4686415689	225
1	1123	133.4686415689	226
1	1123	133.4686415689	227
1	1141	137.11641933088	228
1	1141	137.11641933088	229
1	1141	137.11641933088	230
1	1157	138.224944020427	231
1	1157	138.224944020427	232
1	1157	138.224944020427	233
1	1173	140.027396365159	234
1	1173	140.027396365159	235
1	1173	140.027396365159	236
1	1189	141.554681219266	237
1	1189	141.554681219266	238
1	1189	141.554681219266	239
1	1201	142.740272029759	240
1	1201	142.740272029759	241
1	1201	142.740272029759	242
1	1217	144.656600869614	243
1	1217	144.656600869614	244
1	1217	144.656600869614	245
1	1235	147.519825080865	246
1	1235	147.519825080865	247
1	1235	147.519825080865	248
1	1251	148.920951411327	249
1	1251	148.920951411327	250
1	1251	148.920951411327	251
1	1267	150.828819786916	252
1	1267	150.828819786916	253
1	1267	150.828819786916	254
1	1283	151.901176994094	255
1	1283	151.901176994094	256
1	1283	151.901176994094	257
1	1299	152.964372195998	258
1	1299	152.964372195998	259
1	1299	152.964372195998	260
1	1317	156.210883545265	261
1	1317	156.210883545265	262
1	1317	156.210883545265	263
1	1333	158.147028632999	264
1	1333	158.147028632999	265
1	1333	158.147028632999	266
1	1349	159.989678893648	267
1	1349	159.989678893648	268
1	1349	159.989678893648	269
1	1365	161.185157883194	270
1	1365	161.185157883194	271
1	1365	161.185157883194	272
1	1383	163.777914290439	273
1	1383	163.777914290439	274
1	1383	163.777914290439	275
1	1399	165.480611690507	276
1	1399	165.480611690507	277
1	1399	165.480611690507	278
1	1414	168.120465887711	279
1	1414	168.120465887711	280
1	1414	168.120465887711	281
1	1430	169.948980363229	282
1	1430	169.948980363229	283
1	1430	169.948980363229	284
1	1446	171.834961894696	285
1	1446	171.834961894696	286
1	1446	171.834961894696	287
1	1466	176.141107956779	288
1	1466	176.141107956779	289
1	1466	176.141107956779	290
1	1482	177.986957650323	291
1	1482	177.986957650323	292
1	1482	177.986957650323	293
1	1494	179.981283868079	294
1	1494	179.981283868079	295
1	1494	179.981283868079	296
1	1510	181.856128667913	297
1	1510	181.856128667913	298
1	1510	181.856128667913	299
1	1526	183.329337612697	300
1	1526	183.329337612697	301
1	1526	183.329337612697	302
1	1532	184.635047081364	303
1	1532	184.635047081364	304
1	1532	184.635047081364	305
1	1550	187.04501835062	306
1	1550	187.04501835062	307
1	1550	187.04501835062	308
1	1568	190.021240735855	309
1	1568	190.021240735855	310
1	1568	190.021240735855	311
1	1584	191.997626161125	312
1	1584	191.997626161125	313
1	1584	191.997626161125	314
1	1600	193.373055542317	315
1	1600	193.373055542317	316
1	1600	193.373055542317	317
1	1616	195.217956149593	318
1	1616	195.217956149593	319
1	1616	195.217956149593	320
1	1632	196.81950078824	321
1	1632	196.81950078824	322
1	1632	196.81950078824	323
1	1648	197.995580065788	324
1	1648	197.995580065788	325
1	1648	197.995580065788	326
1	1666	200.867281299436	327
1	1666	200.867281299436	328
1	1666	200.867281299436	329
1	1682	202.039795535042	330
1	1682	202.039795535042	331
1	1682	202.039795535042	332
1	1698	203.20063732944	333
1	1698	203.20063732944	334
1	1698	203.20063732944	335
1	1714	204.717086183476	336
1	1714	204.717086183476	337
1	1714	204.717086183476	338
1	1730	206.668934456877	339
1	1730	206.668934456877	340
1	1730	206.668934456877	341
1	1746	208.506133849993	342
1	1746	208.506133849993	343
1	1746	208.506133849993	344
1	1766	212.498684883513	345
1	1766	212.498684883513	346
1	1766	212.498684883513	347
1	1784	215.475554076708	348
1	1784	215.475554076708	349
1	1784	215.475554076708	350
1	1800	216.907434465356	351
1	1800	216.907434465356	352
1	1800	216.907434465356	353
1	1813	218.28866179026	354
1	1813	218.28866179026	355
1	1813	218.28866179026	356
1	1829	220.116442666449	357
1	1829	220.116442666449	358
1	1829	220.116442666449	359
1	1847	222.946473152393	360
1	1847	222.946473152393	361
1	1847	222.946473152393	362
1	1863	224.426376759021	363
1	1863	224.426376759021	364
1	1863	224.426376759021	365
1	1879	226.170152239087	366
1	1879	226.170152239087	367
1	1879	226.170152239087	368
1	1895	227.169911265143	369
1	1895	227.169911265143	370
1	1895	227.169911265143	371
1	1913	230.123664306228	372
1	1913	230.123664306228	373
1	1913	230.123664306228	374
1	1933	234.827144985809	375
1	1933	234.827144985809	376
1	1933	234.827144985809	377
1	1949	236.562686702863	378
1	1949	236.562686702863	379
1	1949	236.562686702863	380
1	1965	237.666424296448	381
1	1965	237.666424296448	382
1	1965	237.666424296448	383
1	1981	238.717191882957	384
1	1981	238.717191882957	385
1	1981	238.717191882957	386
2	7	0.205690100955	0
2	7	0.205690100955	1
2	23	2.127434468571	2
2	23	2.127434468571	3
2	42	4.063723189674	4
2	42	4.063723189674	5
2	56	5.518693634704	6
2	56	5.518693634704	7
2	85	8.826852434608	8
2	85	8.826852434608	9
2	100	10.529704494718	10
2	100	10.529704494718	11
2	116	11.837164427398	12
2	116	11.837164427398	13
2	130	12.887562087135	14
2	130	12.887562087135	15
2	148	14.847283510341	16
2	148	14.847283510341	17
2	161	16.728030625382	18
2	161	16.728030625382	19
2	177	18.305372970151	20
2	177	18.305372970151	21
2	193	20.088253254097	22
2	193	20.088253254097	23
2	202	21.15438995687	24
2	202	21.15438995687	25
2	218	22.174807916145	26
2	218	22.174807916145	27
2	234	23.177979547555	28
2	234	23.177979547555	29
2	250	24.234853160366	30
2	250	24.234853160366	31
2	273	25.337092241948	32
2	273	25.337092241948	33
2	297	33.734138737525	34
2	297	33.734138737525	35
2	306	35.5308600177	36
2	306	35.5308600177	37
2	321	36.590084229127	38
2	321	36.590084229127	39
2	341	38.937001705105	40
2	341	38.937001705105	41
2	352	40.420643213545	42
2	352	40.420643213545	43
2	379	44.808538646314	44
2	379	44.808538646314	45
2	388	45.831133313678	46
2	388	45.831133313678	47
2	404	46.912076515703	48
2	404	46.912076515703	49
2	421	48.866477100715	50
2	421	48.866477100715	51
2	447	52.918975137111	52
2	447	52.918975137111	53
2	464	54.062904744929	54
2	464	54.062904744929	55
2	479	55.043281093639	56
2	479	55.043281093639	57
2	495	56.990864474902	58
2	495	56.990864474902	59
2	511	58.581910342253	60
2	511	58.581910342253	61
2	528	59.853761759497	62
2	528	59.853761759497	63
2	550	60.943271808518	64
2	550	60.943271808518	65
2	566	62.215130277017	66
2	566	62.215130277017	67
2	590	66.485624785044	68
2	590	66.485624785044	69
2	607	69.983520761405	70
2	607	69.983520761405	71
2	621	71.154379480513	72
2	621	71.154379480513	73
2	637	72.386893631949	74
2	637	72.386893631949	75
2	648	73.872169382423	76
2	648	73.872169382423	77
2	665	75.494562169164	78
2	665	75.494562169164	79
2	677	77.168711193782	80
2	677	77.168711193782	81
2	686	78.503503827036	82
2	686	78.503503827036	83
2	702	80.340289643218	84
2	702	80.340289643218	85
2	719	82.147747014696	86
2	719	82.147747014696	87
2	734	83.953406670099	88
2	734	83.953406670099	89
2	750	85.925515378192	90
2	750	85.925515378192	91
2	766	87.079595135082	92
2	766	87.079595135082	93
2	782	88.520270385411	94
2	782	88.520270385411	95
2	798	89.582824494592	96
2	798	89.582824494592	97
2	815	90.988838582624	98
2	815	90.988838582624	99
2	833	92.448479150652	100
2	833	92.448479150652	101
2	846	94.216976398124	102
2	846	94.216976398124	103
2	859	95.408298951381	104
2	859	95.408298951381	105
2	878	97.347577727894	106
2	878	97.347577727894	107
2	894	100.45490839693	108
2	894	100.45490839693	109
2	907	103.335568353956	110
2	907	103.335568353956	111
2	931	108.315658651575	112
2	931	108.315658651575	113
2	943	110.207363848187	114
2	943	110.207363848187	115
2	952	111.709385824185	116
2	952	111.709385824185	117
2	966	113.214625324641	118
2	966	113.214625324641	119
2	985	114.514013191943	120
2	985	114.514013191943	121
2	997	116.392732010656	122
2	997	116.392732010656	123
2	1020	118.339371698586	124
2	1020	118.339371698586	125
2	1031	121.539340098429	126
2	1031	121.539340098429	127
2	1041	122.813683411061	128
2	1041	122.813683411061	129
2	1075	126.471866453289	130
2	1075	126.471866453289	131
2	1098	127.659394147402	132
2	1098	127.659394147402	133
2	1107	129.065607869292	134
2	1107	129.065607869292	135
2	1130	133.489803320341	136
2	1130	133.489803320341	137
2	1145	137.136893415383	138
2	1145	137.136893415383	139
2	1168	138.297632841634	140
2	1168	138.297632841634	141
2	1177	140.055950164634	142
2	1177	140.055950164634	143
2	1194	141.56941463278	144
2	1194	141.56941463278	145
2	1212	142.784079799146	146
2	1212	142.784079799146	147
2	1225	144.69229979366	148
2	1225	144.69229979366	149
2	1239	147.531412125124	150
2	1239	147.531412125124	151
2	1255	148.941118565536	152
2	1255	148.941118565536	153
2	1274	150.856854359315	154
2	1274	150.856854359315	155
2	1287	151.91799147817	156
2	1287	151.91799147817	157
2	1306	152.989862768504	158
2	1306	152.989862768504	159
2	1322	156.234357264642	160
2	1322	156.234357264642	161
2	1337	158.157228365429	162
2	1337	158.157228365429	163
2	1353	159.999716902538	164
2	1353	159.999716902538	165
2	1372	161.209868675711	166
2	1372	161.209868675711	167
2	1387	163.789201346002	168
2	1387	163.789201346002	169
2	1403	165.500545336533	170
2	1403	165.500545336533	171
2	1418	168.133503893618	172
2	1418	168.133503893618	173
2	1434	169.960070698286	174
2	1434	169.960070698286	175
2	1450	171.849775138294	176
2	1450	171.849775138294	177
2	1474	176.180523300759	178
2	1474	176.180523300759	179
2	1489	178.016616248146	180
2	1489	178.016616248146	181
2	1498	180.00081841501	182
2	1498	180.00081841501	183
2	1514	181.866833619678	184
2	1514	181.866833619678	185
2	1537	184.645188106703	186
2	1537	184.645188106703	187
2	1561	187.108917474003	188
2	1561	187.108917474003	189
2	1572	190.034281810453	190
2	1572	190.034281810453	191
2	1589	192.010604996791	192
2	1589	192.010604996791	193
2	1604	193.391858710044	194
2	1604	193.391858710044	195
2	1627	195.25830345809	196
2	1627	195.25830345809	197
2	1636	196.842115776903	198
2	1636	196.842115776903	199
2	1653	198.015743320636	200
2	1653	198.015743320636	201
2	1673	200.892213503272	202
2	1673	200.892213503272	203
2	1686	202.057893371133	204
2	1686	202.057893371133	205
2	1702	203.227443137688	206
2	1702	203.227443137688	207
2	1718	204.737278471152	208
2	1718	204.737278471152	209
2	1734	206.682759737432	210
2	1734	206.682759737432	211
2	1757	208.567393288127	212
2	1757	208.567393288127	213
2	1770	212.516576065583	214
2	1770	212.516576065583	215
2	1788	215.49086151899	216
2	1788	215.49086151899	217
2	1817	218.298977698775	218
2	1817	218.298977698775	219
2	1834	220.141469543828	220
2	1834	220.141469543828	221
2	1854	222.978188542498	222
2	1854	222.978188542498	223
2	1868	224.443378668581	224
2	1868	224.443378668581	225
2	1884	226.18524748062	226
2	1884	226.18524748062	227
2	1899	227.184709081682	228
2	1899	227.184709081682	229
2	1918	230.141826769318	230
2	1918	230.141826769318	231
2	1937	234.84386990477	232
2	1937	234.84386990477	233
2	1954	236.580617798494	234
2	1954	236.580617798494	235
2	1970	237.684899924312	236
2	1970	237.684899924312	237
2	1985	238.731338203808	238
2	1985	238.731338203808	239
3	10	0.21665893968	0
3	10	0.21665893968	1
3	10	0.21665893968	2
3	27	2.14004262707	3
3	27	2.14004262707	4
3	27	2.14004262707	5
3	45	4.076032458522	6
3	45	4.076032458522	7
3	45	4.076032458522	8
3	61	5.538333400915	9
3	61	5.538333400915	10
3	61	5.538333400915	11
3	74	7.398170315423	12
3	74	7.398170315423	13
3	74	7.398170315423	14
3	88	8.835578891486	15
3	88	8.835578891486	16
3	88	8.835578891486	17
3	103	10.564576948665	18
3	103	10.564576948665	19
3	103	10.564576948665	20
3	119	11.849791271034	21
3	119	11.849791271034	22
3	119	11.849791271034	23
3	133	12.891905890194	24
3	133	12.891905890194	25
3	133	12.891905890194	26
3	149	14.850043483194	27
3	149	14.850043483194	28
3	149	14.850043483194	29
3	164	16.751931337716	30
3	164	16.751931337716	31
3	164	16.751931337716	32
3	189	20.076903393065	33
3	189	20.076903393065	34
3	189	20.076903393065	35
3	206	21.168810258639	36
3	206	21.168810258639	37
3	206	21.168810258639	38
3	222	22.186282895148	39
3	222	22.186282895148	40
3	222	22.186282895148	41
3	238	23.189306533091	42
3	238	23.189306533091	43
3	238	23.189306533091	44
3	256	24.26330671829	45
3	256	24.26330671829	46
3	256	24.26330671829	47
3	269	25.310636139236	48
3	269	25.310636139236	49
3	269	25.310636139236	50
3	322	36.593897432064	51
3	322	36.593897432064	52
3	322	36.593897432064	53
3	358	40.453885448882	54
3	358	40.453885448882	55
3	358	40.453885448882	56
3	375	44.772661546223	57
3	375	44.772661546223	58
3	375	44.772661546223	59
3	391	45.841273811762	60
3	391	45.841273811762	61
3	391	45.841273811762	62
3	410	46.927019605447	63
3	410	46.927019605447	64
3	410	46.927019605447	65
3	426	48.877827620716	66
3	426	48.877827620716	67
3	426	48.877827620716	68
3	451	52.933353749835	69
3	451	52.933353749835	70
3	451	52.933353749835	71
3	467	54.066136937592	72
3	467	54.066136937592	73
3	467	54.066136937592	74
3	485	55.070160498143	75
3	485	55.070160498143	76
3	485	55.070160498143	77
3	498	57.025948493404	78
3	498	57.025948493404	79
3	498	57.025948493404	80
3	514	58.601801005157	81
3	514	58.601801005157	82
3	514	58.601801005157	83
3	531	59.85881863356	84
3	531	59.85881863356	85
3	531	59.85881863356	86
3	546	60.927805989287	87
3	546	60.927805989287	88
3	546	60.927805989287	89
3	562	62.197840585322	90
3	562	62.197840585322	91
3	562	62.197840585322	92
3	589	66.480324113422	93
3	589	66.480324113422	94
3	589	66.480324113422	95
3	610	69.999810849214	96
3	610	69.999810849214	97
3	610	69.999810849214	98
3	624	71.161079615034	99
3	624	71.161079615034	100
3	624	71.161079615034	101
3	651	73.884621986006	102
3	651	73.884621986006	103
3	651	73.884621986006	104
3	664	75.492694203764	105
3	664	75.492694203764	106
3	664	75.492694203764	107
3	692	78.531594751221	108
3	692	78.531594751221	109
3	692	78.531594751221	110
3	705	80.353261168286	111
3	705	80.353261168286	112
3	705	80.353261168286	113
3	722	82.153849919146	114
3	722	82.153849919146	115
3	722	82.153849919146	116
3	737	83.964861875898	117
3	737	83.964861875898	118
3	737	83.964861875898	119
3	753	85.951875037034	120
3	753	85.951875037034	121
3	753	85.951875037034	122
3	770	87.092635595144	123
3	770	87.092635595144	124
3	770	87.092635595144	125
3	786	88.53055032763	126
3	786	88.53055032763	127
3	786	88.53055032763	128
3	802	89.609118905891	129
3	802	89.609118905891	130
3	802	89.609118905891	131
3	820	90.999627220688	132
3	820	90.999627220688	133
3	820	90.999627220688	134
3	834	92.453347484378	135
3	834	92.453347484378	136
3	834	92.453347484378	137
3	849	94.235498319142	138
3	849	94.235498319142	139
3	849	94.235498319142	140
3	865	95.427102228261	141
3	865	95.427102228261	142
3	865	95.427102228261	143
3	881	97.369228970687	144
3	881	97.369228970687	145
3	881	97.369228970687	146
3	910	103.348641071829	147
3	910	103.348641071829	148
3	910	103.348641071829	149
3	930	108.314937483427	150
3	930	108.314937483427	151
3	930	108.314937483427	152
3	955	111.729885576619	153
3	955	111.729885576619	154
3	955	111.729885576619	155
3	971	113.242313587667	156
3	971	113.242313587667	157
3	971	113.242313587667	158
3	984	114.508244933328	159
3	984	114.508244933328	160
3	984	114.508244933328	161
3	1003	116.42983566443	162
3	1003	116.42983566443	163
3	1003	116.42983566443	164
3	1016	118.308229565843	165
3	1016	118.308229565843	166
3	1016	118.308229565843	167
3	1046	122.84686675408	168
3	1046	122.84686675408	169
3	1046	122.84686675408	170
3	1065	125.035704475578	171
3	1065	125.035704475578	172
3	1065	125.035704475578	173
3	1078	126.486220637168	174
3	1078	126.486220637168	175
3	1078	126.486220637168	176
3	1094	127.647581635992	177
3	1094	127.647581635992	178
3	1094	127.647581635992	179
3	1111	129.0757902316	180
3	1111	129.0757902316	181
3	1111	129.0757902316	182
3	1133	133.502776823477	183
3	1133	133.502776823477	184
3	1133	133.502776823477	185
3	1151	137.163652144106	186
3	1151	137.163652144106	187
3	1151	137.163652144106	188
3	1164	138.27806787501	189
3	1164	138.27806787501	190
3	1164	138.27806787501	191
3	1180	140.069641138845	192
3	1180	140.069641138845	193
3	1180	140.069641138845	194
3	1208	142.763438816715	195
3	1208	142.763438816715	196
3	1208	142.763438816715	197
3	1224	144.682602349533	198
3	1224	144.682602349533	199
3	1224	144.682602349533	200
3	1245	147.545629063821	201
3	1245	147.545629063821	202
3	1245	147.545629063821	203
3	1261	148.977466602778	204
3	1261	148.977466602778	205
3	1261	148.977466602778	206
3	1277	150.867713491084	207
3	1277	150.867713491084	208
3	1277	150.867713491084	209
3	1293	151.941490240956	210
3	1293	151.941490240956	211
3	1293	151.941490240956	212
3	1309	153.015390348268	213
3	1309	153.015390348268	214
3	1309	153.015390348268	215
3	1327	156.250323198687	216
3	1327	156.250323198687	217
3	1327	156.250323198687	218
3	1340	158.171318164033	219
3	1340	158.171318164033	220
3	1340	158.171318164033	221
3	1357	160.012745511606	222
3	1357	160.012745511606	223
3	1357	160.012745511606	224
3	1375	161.221937044335	225
3	1375	161.221937044335	226
3	1375	161.221937044335	227
3	1393	163.803608961544	228
3	1393	163.803608961544	229
3	1393	163.803608961544	230
3	1406	165.514463008099	231
3	1406	165.514463008099	232
3	1406	165.514463008099	233
3	1424	168.149800845246	234
3	1424	168.149800845246	235
3	1424	168.149800845246	236
3	1438	169.971484502076	237
3	1438	169.971484502076	238
3	1438	169.971484502076	239
3	1453	171.860477291605	240
3	1453	171.860477291605	241
3	1453	171.860477291605	242
3	1473	176.179271786625	243
3	1473	176.179271786625	244
3	1473	176.179271786625	245
3	1502	180.012261029467	246
3	1502	180.012261029467	247
3	1502	180.012261029467	248
3	1518	181.883880596401	249
3	1518	181.883880596401	250
3	1518	181.883880596401	251
3	1542	184.670766150997	252
3	1542	184.670766150997	253
3	1542	184.670766150997	254
3	1557	187.09369318051	255
3	1557	187.09369318051	256
3	1557	187.09369318051	257
3	1578	190.047185775712	258
3	1578	190.047185775712	259
3	1578	190.047185775712	260
3	1594	192.021773460551	261
3	1594	192.021773460551	262
3	1594	192.021773460551	263
3	1607	193.40994553861	264
3	1607	193.40994553861	265
3	1607	193.40994553861	266
3	1623	195.244102317636	267
3	1623	195.244102317636	268
3	1623	195.244102317636	269
3	1639	196.857661207527	270
3	1639	196.857661207527	271
3	1639	196.857661207527	272
3	1658	198.027348613087	273
3	1658	198.027348613087	274
3	1658	198.027348613087	275
3	1674	200.894961696024	276
3	1674	200.894961696024	277
3	1674	200.894961696024	278
3	1690	202.073455771382	279
3	1690	202.073455771382	280
3	1690	202.073455771382	281
3	1706	203.23877560976	282
3	1706	203.23877560976	283
3	1706	203.23877560976	284
3	1721	204.755518464268	285
3	1721	204.755518464268	286
3	1721	204.755518464268	287
3	1740	206.740257665443	288
3	1740	206.740257665443	289
3	1740	206.740257665443	290
3	1753	208.545235555345	291
3	1753	208.545235555345	292
3	1753	208.545235555345	293
3	1774	212.526865111508	294
3	1774	212.526865111508	295
3	1774	212.526865111508	296
3	1794	215.515751885649	297
3	1794	215.515751885649	298
3	1794	215.515751885649	299
3	1807	216.934614954197	300
3	1807	216.934614954197	301
3	1807	216.934614954197	302
3	1821	218.309000693526	303
3	1821	218.309000693526	304
3	1821	218.309000693526	305
3	1839	220.15522150756	306
3	1839	220.15522150756	307
3	1839	220.15522150756	308
3	1857	222.992818538098	309
3	1857	222.992818538098	310
3	1857	222.992818538098	311
3	1873	224.454712213399	312
3	1873	224.454712213399	313
3	1873	224.454712213399	314
3	1889	226.205397043608	315
3	1889	226.205397043608	316
3	1889	226.205397043608	317
3	1905	227.198339559904	318
3	1905	227.198339559904	319
3	1905	227.198339559904	320
3	1921	230.149957893611	321
3	1921	230.149957893611	322
3	1921	230.149957893611	323
3	1940	234.860293521309	324
3	1940	234.860293521309	325
3	1940	234.860293521309	326
3	1959	236.593509997055	327
3	1959	236.593509997055	328
3	1959	236.593509997055	329
3	1975	237.706664331062	330
3	1975	237.706664331062	331
3	1975	237.706664331062	332
3	1989	238.74421223201	333
3	1989	238.74421223201	334
3	1989	238.74421223201	335
4	13	0.22665893968	0
4	32	2.15004262707	1
4	48	4.086032458522	2
4	64	5.548333400915	3
4	106	10.574576948665	4
4	122	11.859791271034	5
4	138	12.901905890194	6
4	154	14.860043483194	7
4	167	16.761931337716	8
4	192	20.086903393065	9
4	211	21.178810258639	10
4	227	22.196282895148	11
4	272	25.320636139236	12
4	327	36.603897432064	13
4	378	44.782661546223	14
4	395	45.851273811762	15
4	429	48.887827620716	16
4	456	52.943353749835	17
4	488	55.080160498143	18
4	501	57.035948493404	19
4	517	58.611801005157	20
4	536	59.86881863356	21
4	549	60.937805989287	22
4	565	62.207840585322	23
4	593	66.490324113422	24
4	613	70.009810849214	25
4	629	71.171079615034	26
4	654	73.894621986006	27
4	668	75.502694203764	28
4	695	78.541594751221	29
4	708	80.363261168286	30
4	727	82.163849919146	31
4	740	83.974861875898	32
4	756	85.961875037034	33
4	775	87.102635595144	34
4	868	95.437102228261	35
4	884	97.379228970687	36
4	913	103.358641071829	37
4	934	108.324937483427	38
4	958	111.739885576619	39
4	988	114.518244933328	40
4	1019	118.318229565843	41
4	1049	122.85686675408	42
4	1068	125.045704475578	43
4	1081	126.496220637168	44
4	1097	127.657581635992	45
4	1116	129.0857902316	46
4	1136	133.512776823477	47
4	1154	137.173652144106	48
4	1167	138.28806787501	49
4	1183	140.079641138845	50
4	1211	142.773438816715	51
4	1248	147.555629063821	52
4	1264	148.987466602778	53
4	1296	151.951490240956	54
4	1312	153.025390348268	55
4	1330	156.260323198687	56
4	1344	158.181318164033	57
4	1362	160.022745511606	58
4	1378	161.231937044335	59
4	1396	163.813608961544	60
4	1409	165.524463008099	61
4	1427	168.159800845246	62
4	1456	171.870477291605	63
4	1507	180.022261029467	64
4	1523	181.893880596401	65
4	1545	184.680766150997	66
4	1560	187.10369318051	67
4	1610	193.41994553861	68
4	1626	195.254102317636	69
4	1661	198.037348613087	70
4	1679	200.904961696024	71
4	1695	202.083455771382	72
4	1711	203.24877560976	73
4	1724	204.765518464268	74
4	1743	206.750257665443	75
4	1756	208.555235555345	76
4	1797	215.525751885649	77
4	1810	216.944614954197	78
4	1826	218.319000693526	79
4	1842	220.16522150756	80
4	1876	224.464712213399	81
4	1892	226.215397043608	82
4	1926	230.159957893611	83
4	1944	234.870293521309	84
4	1978	237.716664331062	85
4	1994	238.75421223201	86
5	14	0.22872008602	0
5	14	0.22872008602	1
5	24	2.136706021611	2
5	24	2.136706021611	3
5	39	4.04979924493	4
5	39	4.04979924493	5
5	55	5.517230760606	6
5	55	5.517230760606	7
5	71	7.370174878133	8
5	71	7.370174878133	9
5	84	8.824489377355	10
5	84	8.824489377355	11
5	107	10.598706349246	12
5	107	10.598706349246	13
5	129	12.88039805524	14
5	129	12.88039805524	15
5	145	14.832312382562	16
5	145	14.832312382562	17
5	168	16.766222232587	18
5	168	16.766222232587	19
5	186	20.064198067031	20
5	186	20.064198067031	21
5	203	21.16294200177	22
5	203	21.16294200177	23
5	219	22.182095896364	24
5	219	22.182095896364	25
5	235	23.179813052717	26
5	235	23.179813052717	27
5	251	24.235623510102	28
5	251	24.235623510102	29
5	266	25.297214615833	30
5	266	25.297214615833	31
5	282	26.862797295144	32
5	282	26.862797295144	33
5	307	35.533302485047	34
5	307	35.533302485047	35
5	318	36.577089796054	36
5	318	36.577089796054	37
5	340	38.935487422121	38
5	340	38.935487422121	39
5	355	40.439263757666	40
5	355	40.439263757666	41
5	372	44.754067539762	42
5	372	44.754067539762	43
5	392	45.84267405963	44
5	392	45.84267405963	45
5	405	46.914271577695	46
5	405	46.914271577695	47
5	420	48.861675951811	48
5	420	48.861675951811	49
5	438	51.919856794377	50
5	438	51.919856794377	51
5	450	52.931328498586	52
5	450	52.931328498586	53
5	463	54.054784166628	54
5	463	54.054784166628	55
5	482	55.055963503189	56
5	482	55.055963503189	57
5	502	57.035952514443	58
5	502	57.035952514443	59
5	518	58.61516379559	60
5	518	58.61516379559	61
5	527	59.845750619291	62
5	527	59.845750619291	63
5	543	60.912180460975	64
5	543	60.912180460975	65
5	559	62.164422964378	66
5	559	62.164422964378	67
5	575	63.44622974142	68
5	575	63.44622974142	69
5	586	66.469617642343	70
5	586	66.469617642343	71
5	604	69.973482245805	72
5	604	69.973482245805	73
5	620	71.148107430401	74
5	620	71.148107430401	75
5	636	72.382752527804	76
5	636	72.382752527804	77
5	661	75.482199149439	78
5	661	75.482199149439	79
5	687	78.50943709763	80
5	687	78.50943709763	81
5	709	80.371588791723	82
5	709	80.371588791723	83
5	718	82.142306677481	84
5	718	82.142306677481	85
5	741	83.992015786357	86
5	741	83.992015786357	87
5	757	85.968415511909	88
5	757	85.968415511909	89
5	767	87.083037404693	90
5	767	87.083037404693	91
5	783	88.529571651711	92
5	783	88.529571651711	93
5	801	89.603738665	94
5	801	89.603738665	95
5	814	90.984030233242	96
5	814	90.984030233242	97
5	830	92.437747872349	98
5	830	92.437747872349	99
5	860	95.416017988662	100
5	860	95.416017988662	101
5	875	97.333088736128	102
5	875	97.333088736128	103
5	893	100.446119764185	104
5	893	100.446119764185	105
5	914	103.369157808623	106
5	914	103.369157808623	107
5	927	108.301630435371	108
5	927	108.301630435371	109
5	965	113.211082288762	110
5	965	113.211082288762	111
5	981	114.496478302573	112
5	981	114.496478302573	113
5	1000	116.415428729043	114
5	1000	116.415428729043	115
5	1013	118.286127090311	116
5	1013	118.286127090311	117
5	1040	122.808795970516	118
5	1040	122.808795970516	119
5	1062	125.020329491653	120
5	1062	125.020329491653	121
5	1082	126.502994789086	122
5	1082	126.502994789086	123
5	1091	127.633725704826	124
5	1091	127.633725704826	125
5	1108	129.070508141359	126
5	1108	129.070508141359	127
5	1127	133.478768407552	128
5	1127	133.478768407552	129
5	1146	137.144162431003	130
5	1146	137.144162431003	131
5	1161	138.254311528728	132
5	1161	138.254311528728	133
5	1184	140.092855387982	134
5	1184	140.092855387982	135
5	1193	141.566218774101	136
5	1193	141.566218774101	137
5	1205	142.751111603252	138
5	1205	142.751111603252	139
5	1221	144.672315581743	140
5	1221	144.672315581743	141
5	1240	147.535003615214	142
5	1240	147.535003615214	143
5	1256	148.944771581272	144
5	1256	148.944771581272	145
5	1271	150.839397572224	146
5	1271	150.839397572224	147
5	1288	151.918742070023	148
5	1288	151.918742070023	149
5	1303	152.975515819846	150
5	1303	152.975515819846	151
5	1321	156.228389273983	152
5	1321	156.228389273983	153
5	1341	158.176831225832	154
5	1341	158.176831225832	155
5	1354	160.00293737304	156
5	1354	160.00293737304	157
5	1369	161.199855934767	158
5	1369	161.199855934767	159
5	1388	163.790649659119	160
5	1388	163.790649659119	161
5	1419	168.134780707244	162
5	1419	168.134780707244	163
5	1435	169.965197868719	164
5	1435	169.965197868719	165
5	1457	171.872906041727	166
5	1457	171.872906041727	167
5	1470	176.159481166372	168
5	1470	176.159481166372	169
5	1486	178.002740123622	170
5	1486	178.002740123622	171
5	1501	180.010913031401	172
5	1501	180.010913031401	173
5	1515	181.875513591287	174
5	1515	181.875513591287	175
5	1536	184.645072579197	176
5	1536	184.645072579197	177
5	1554	187.05874302145	178
5	1554	187.05874302145	179
5	1573	190.034554107703	180
5	1573	190.034554107703	181
5	1588	192.008273788562	182
5	1588	192.008273788562	183
5	1611	193.428166247977	184
5	1611	193.428166247977	185
5	1620	195.228436250237	186
5	1620	195.228436250237	187
5	1643	196.881492102709	188
5	1643	196.881492102709	189
5	1652	198.00736148759	190
5	1652	198.00736148759	191
5	1670	200.878747119685	192
5	1670	200.878747119685	193
5	1689	202.068535845435	194
5	1689	202.068535845435	195
5	1703	203.23037674013	196
5	1703	203.23037674013	197
5	1725	204.79104305212	198
5	1725	204.79104305212	199
5	1735	206.684237040359	200
5	1735	206.684237040359	201
5	1750	208.524927117859	202
5	1750	208.524927117859	203
5	1771	212.523163732578	204
5	1771	212.523163732578	205
5	1789	215.494709292098	206
5	1789	215.494709292098	207
5	1804	216.924589329663	208
5	1804	216.924589329663	209
5	1818	218.305933098902	210
5	1818	218.305933098902	211
5	1833	220.138768476999	212
5	1833	220.138768476999	213
5	1851	222.962431158284	214
5	1851	222.962431158284	215
5	1867	224.439817928076	216
5	1867	224.439817928076	217
5	1883	226.181020927143	218
5	1883	226.181020927143	219
5	1900	227.184997197306	220
5	1900	227.184997197306	221
5	1917	230.137536035298	222
5	1917	230.137536035298	223
5	1941	234.864831281934	224
5	1941	234.864831281934	225
5	1953	236.576667051507	226
5	1953	236.576667051507	227
5	1969	237.681301965239	228
5	1969	237.681301965239	229
5	1986	238.734696400609	230
5	1986	238.734696400609	231

