version 2
run General-4-20231008-05:34:47-14246
attr configname General
attr datetime 20231008-05:34:47
attr experiment General
attr inifile omnetpp.ini
attr iterationvars ""
attr iterationvarsf ""
attr measurement ""
attr network Reliability
attr processid 14246
attr repetition 4
attr replication #4
attr resultdir results
attr runnumber 4
attr seedset 4
param Reliability.node[*].transmissionTime "uniform(1s, 2s)"
param Reliability.node[*].delayTime "uniform(0.01s, 0.2s)"
param Reliability.node[*].processingTime exponential(0.01s)
param Reliability.node[*].lossProbability 0.2

vector 0 Reliability.node[0] txVector ETV
vector 1 Reliability.node[1] txVector ETV
vector 2 Reliability.node[3] txVector ETV
vector 3 Reliability.node[2] txVector ETV
vector 4 Reliability.node[4] txVector ETV
vector 5 Reliability.node[5] rxVector ETV
0	1	0.193735669288	0
0	17	2.094357123985	1
0	23	3.997535650306	2
0	39	5.569892142121	3
0	55	7.380954246655	4
0	71	9.246837001679	5
0	87	10.458017557313	6
0	103	12.035014526139	7
0	119	13.271155848552	8
0	135	14.969321453397	9
0	148	16.04930069336	10
0	164	17.114368501271	11
0	180	18.798391716474	12
0	196	20.465319486487	13
0	208	22.084249409766	14
0	210	24.063865672949	15
0	226	25.687434511644	16
0	242	26.811449132779	17
0	244	28.574442780962	18
0	253	30.327262981016	19
0	269	31.910806512613	20
0	285	33.382774575533	21
0	301	34.898546253716	22
0	303	36.214822759538	23
0	309	37.968678209384	24
0	325	39.195659228752	25
0	341	40.459919738036	26
0	357	41.911540430423	27
0	366	42.931482790189	28
0	382	44.469264459714	29
0	398	45.805113867774	30
0	414	46.970231982564	31
0	430	48.427171219058	32
0	432	49.484377139398	33
0	434	51.033182261895	34
0	450	52.632979751482	35
0	466	54.571873725542	36
0	472	55.694662974599	37
0	474	56.92844340453	38
0	490	58.312023413983	39
0	506	59.46855562009	40
0	522	60.852703283691	41
0	538	62.278721037704	42
0	554	63.946175566792	43
0	570	65.822957073489	44
0	583	67.474008624825	45
0	592	69.435611809288	46
0	608	70.587101058253	47
0	610	72.455069393069	48
0	626	73.728165573124	49
0	642	75.243073805384	50
0	644	76.315241225212	51
0	646	77.847469749543	52
0	648	79.786298660011	53
0	664	81.091114368671	54
0	680	82.922441697129	55
0	696	84.000210469271	56
0	712	85.147937477714	57
0	728	87.130449347346	58
0	744	88.633003867379	59
0	760	90.328057545385	60
0	776	92.200441528259	61
0	792	93.703107012816	62
0	808	95.504821102515	63
0	824	96.979748174463	64
0	840	98.680555406873	65
0	856	100.524247272554	66
0	869	102.28890375086	67
0	885	104.182929465695	68
0	901	105.287850933064	69
0	903	106.337193088521	70
0	919	108.321435028136	71
0	935	110.093133134682	72
0	951	111.699821620163	73
0	967	113.404317977287	74
0	983	114.778347334972	75
0	999	116.709958435184	76
0	1015	118.491633256579	77
0	1028	119.95112707597	78
0	1041	121.221032855946	79
0	1057	122.981555249921	80
0	1073	124.710752081738	81
0	1089	126.544563999779	82
0	1091	127.830734163902	83
0	1093	129.168485103787	84
0	1106	130.788135451877	85
0	1119	132.766456887505	86
0	1125	134.659804849799	87
0	1141	135.690376614367	88
0	1153	137.39819785455	89
0	1169	138.964758831689	90
0	1171	140.060803977687	91
0	1180	141.50713759885	92
0	1196	142.628398133822	93
0	1212	143.793659181249	94
0	1228	144.875671398974	95
0	1244	146.575305780311	96
0	1260	148.120629241372	97
0	1276	149.474670957689	98
0	1278	150.670716887954	99
0	1294	151.693765300707	100
0	1310	153.403243260373	101
0	1326	154.906412079147	102
0	1328	156.211818696613	103
0	1344	157.260716771389	104
0	1356	158.65967103551	105
0	1372	160.389142480826	106
0	1381	161.92365508518	107
0	1397	163.050160064509	108
0	1399	164.068008525211	109
0	1401	165.499634993177	110
0	1410	167.343035338594	111
0	1426	168.638627604962	112
0	1442	170.034710364331	113
0	1444	171.553285281787	114
0	1460	172.790139361432	115
0	1476	174.356332538098	116
0	1485	176.041322706414	117
0	1501	177.817409085257	118
0	1507	179.375552065585	119
0	1520	181.221496392654	120
0	1536	182.75392118111	121
0	1552	184.082292447246	122
0	1568	185.290204692546	123
0	1581	187.241691982753	124
0	1597	188.33955077213	125
0	1609	189.920237422602	126
0	1625	191.489283014469	127
0	1638	192.694661295654	128
0	1654	194.475308362541	129
0	1670	195.748663887528	130
0	1686	197.45738009704	131
0	1698	199.08556430103	132
0	1714	200.648491757603	133
0	1730	202.604697716104	134
0	1736	204.227032049008	135
0	1752	205.749530418923	136
0	1768	207.276531972837	137
0	1784	208.347567435269	138
0	1786	210.126912577458	139
0	1802	211.360368306198	140
0	1818	212.537651489404	141
0	1834	214.370864065046	142
0	1850	215.465465370713	143
0	1859	217.091104858702	144
0	1875	218.609600209545	145
0	1891	219.655735300768	146
0	1893	221.059986223381	147
0	1909	222.763219361806	148
0	1925	224.318203521341	149
0	1941	226.290068211181	150
0	1947	227.523809556531	151
0	1963	228.586822413987	152
0	1979	229.94152782197	153
0	1995	230.997769577111	154
0	2011	232.297193720619	155
0	2027	234.112532371105	156
0	2043	235.627356641143	157
0	2059	237.406418047295	158
0	2075	238.654605088904	159
1	3	0.205631491707	0
1	3	0.205631491707	1
1	3	0.205631491707	2
1	19	2.114380052882	3
1	19	2.114380052882	4
1	19	2.114380052882	5
1	25	4.012021929042	6
1	25	4.012021929042	7
1	25	4.012021929042	8
1	41	5.580084222522	9
1	41	5.580084222522	10
1	41	5.580084222522	11
1	57	7.409503036227	12
1	57	7.409503036227	13
1	57	7.409503036227	14
1	73	9.258830302664	15
1	73	9.258830302664	16
1	73	9.258830302664	17
1	89	10.472351169091	18
1	89	10.472351169091	19
1	89	10.472351169091	20
1	105	12.061669580247	21
1	105	12.061669580247	22
1	105	12.061669580247	23
1	121	13.28556220908	24
1	121	13.28556220908	25
1	121	13.28556220908	26
1	137	14.979778205802	27
1	137	14.979778205802	28
1	137	14.979778205802	29
1	150	16.067067606075	30
1	150	16.067067606075	31
1	150	16.067067606075	32
1	166	17.131597427386	33
1	166	17.131597427386	34
1	166	17.131597427386	35
1	182	18.810001938634	36
1	182	18.810001938634	37
1	182	18.810001938634	38
1	198	20.481060092696	39
1	198	20.481060092696	40
1	198	20.481060092696	41
1	212	24.074734159039	42
1	212	24.074734159039	43
1	212	24.074734159039	44
1	228	25.711686091446	45
1	228	25.711686091446	46
1	228	25.711686091446	47
1	246	28.624187045531	48
1	246	28.624187045531	49
1	246	28.624187045531	50
1	255	30.35024079967	51
1	255	30.35024079967	52
1	255	30.35024079967	53
1	271	31.93087330414	54
1	271	31.93087330414	55
1	271	31.93087330414	56
1	287	33.39950192758	57
1	287	33.39950192758	58
1	287	33.39950192758	59
1	305	36.228097138399	60
1	305	36.228097138399	61
1	305	36.228097138399	62
1	311	37.993549156797	63
1	311	37.993549156797	64
1	311	37.993549156797	65
1	327	39.21114737611	66
1	327	39.21114737611	67
1	327	39.21114737611	68
1	343	40.476544058282	69
1	343	40.476544058282	70
1	343	40.476544058282	71
1	359	41.922625142138	72
1	359	41.922625142138	73
1	359	41.922625142138	74
1	368	42.970638755881	75
1	368	42.970638755881	76
1	368	42.970638755881	77
1	384	44.503066105066	78
1	384	44.503066105066	79
1	384	44.503066105066	80
1	400	45.817737207683	81
1	400	45.817737207683	82
1	400	45.817737207683	83
1	416	46.982907078993	84
1	416	46.982907078993	85
1	416	46.982907078993	86
1	436	51.075819246654	87
1	436	51.075819246654	88
1	436	51.075819246654	89
1	452	52.649553057836	90
1	452	52.649553057836	91
1	452	52.649553057836	92
1	468	54.584511495781	93
1	468	54.584511495781	94
1	468	54.584511495781	95
1	476	56.938881863158	96
1	476	56.938881863158	97
1	476	56.938881863158	98
1	492	58.364872213185	99
1	492	58.364872213185	100
1	492	58.364872213185	101
1	508	59.480391606336	102
1	508	59.480391606336	103
1	508	59.480391606336	104
1	524	60.864853983053	105
1	524	60.864853983053	106
1	524	60.864853983053	107
1	540	62.289428853412	108
1	540	62.289428853412	109
1	540	62.289428853412	110
1	556	63.975828218732	111
1	556	63.975828218732	112
1	556	63.975828218732	113
1	572	65.861081441972	114
1	572	65.861081441972	115
1	572	65.861081441972	116
1	585	67.48877735596	117
1	585	67.48877735596	118
1	585	67.48877735596	119
1	594	69.450105698946	120
1	594	69.450105698946	121
1	594	69.450105698946	122
1	612	72.470182178646	123
1	612	72.470182178646	124
1	612	72.470182178646	125
1	628	73.73844031703	126
1	628	73.73844031703	127
1	628	73.73844031703	128
1	650	79.796955116673	129
1	650	79.796955116673	130
1	650	79.796955116673	131
1	666	81.102881790973	132
1	666	81.102881790973	133
1	666	81.102881790973	134
1	682	82.935828339489	135
1	682	82.935828339489	136
1	682	82.935828339489	137
1	698	84.010846569095	138
1	698	84.010846569095	139
1	698	84.010846569095	140
1	714	85.158154514871	141
1	714	85.158154514871	142
1	714	85.158154514871	143
1	730	87.156367392198	144
1	730	87.156367392198	145
1	730	87.156367392198	146
1	746	88.649774111221	147
1	746	88.649774111221	148
1	746	88.649774111221	149
1	762	90.341760807755	150
1	762	90.341760807755	151
1	762	90.341760807755	152
1	778	92.21911804586	153
1	778	92.21911804586	154
1	778	92.21911804586	155
1	794	93.727025448123	156
1	794	93.727025448123	157
1	794	93.727025448123	158
1	810	95.516118063121	159
1	810	95.516118063121	160
1	810	95.516118063121	161
1	826	96.99182694029	162
1	826	96.99182694029	163
1	826	96.99182694029	164
1	842	98.695604914718	165
1	842	98.695604914718	166
1	842	98.695604914718	167
1	858	100.535183960039	168
1	858	100.535183960039	169
1	858	100.535183960039	170
1	871	102.30393538371	171
1	871	102.30393538371	172
1	871	102.30393538371	173
1	887	104.195526552762	174
1	887	104.195526552762	175
1	887	104.195526552762	176
1	905	106.372526517857	177
1	905	106.372526517857	178
1	905	106.372526517857	179
1	921	108.346309761276	180
1	921	108.346309761276	181
1	921	108.346309761276	182
1	937	110.139250163721	183
1	937	110.139250163721	184
1	937	110.139250163721	185
1	953	111.710536955208	186
1	953	111.710536955208	187
1	953	111.710536955208	188
1	969	113.421446736439	189
1	969	113.421446736439	190
1	969	113.421446736439	191
1	985	114.829011504318	192
1	985	114.829011504318	193
1	985	114.829011504318	194
1	1001	116.755379086563	195
1	1001	116.755379086563	196
1	1001	116.755379086563	197
1	1017	118.527699415174	198
1	1017	118.527699415174	199
1	1017	118.527699415174	200
1	1030	119.969908615674	201
1	1030	119.969908615674	202
1	1030	119.969908615674	203
1	1043	121.246656179327	204
1	1043	121.246656179327	205
1	1043	121.246656179327	206
1	1059	123.00904528342	207
1	1059	123.00904528342	208
1	1059	123.00904528342	209
1	1075	124.730965262021	210
1	1075	124.730965262021	211
1	1075	124.730965262021	212
1	1095	129.18457763922	213
1	1095	129.18457763922	214
1	1095	129.18457763922	215
1	1108	130.80384134529	216
1	1108	130.80384134529	217
1	1108	130.80384134529	218
1	1121	132.808579982544	219
1	1121	132.808579982544	220
1	1121	132.808579982544	221
1	1127	134.672532714163	222
1	1127	134.672532714163	223
1	1127	134.672532714163	224
1	1143	135.701027409701	225
1	1143	135.701027409701	226
1	1143	135.701027409701	227
1	1155	137.415173265755	228
1	1155	137.415173265755	229
1	1155	137.415173265755	230
1	1173	140.083928991663	231
1	1173	140.083928991663	232
1	1173	140.083928991663	233
1	1182	141.522060740123	234
1	1182	141.522060740123	235
1	1182	141.522060740123	236
1	1198	142.68427070649	237
1	1198	142.68427070649	238
1	1198	142.68427070649	239
1	1214	143.803881044732	240
1	1214	143.803881044732	241
1	1214	143.803881044732	242
1	1230	144.887655056046	243
1	1230	144.887655056046	244
1	1230	144.887655056046	245
1	1246	146.605183315989	246
1	1246	146.605183315989	247
1	1246	146.605183315989	248
1	1262	148.154456645326	249
1	1262	148.154456645326	250
1	1262	148.154456645326	251
1	1280	150.69081103094	252
1	1280	150.69081103094	253
1	1280	150.69081103094	254
1	1296	151.704237640012	255
1	1296	151.704237640012	256
1	1296	151.704237640012	257
1	1312	153.433204772734	258
1	1312	153.433204772734	259
1	1312	153.433204772734	260
1	1330	156.233825281752	261
1	1330	156.233825281752	262
1	1330	156.233825281752	263
1	1346	157.274806968727	264
1	1346	157.274806968727	265
1	1346	157.274806968727	266
1	1358	158.678637740059	267
1	1358	158.678637740059	268
1	1358	158.678637740059	269
1	1374	160.410470433723	270
1	1374	160.410470433723	271
1	1374	160.410470433723	272
1	1383	161.946307414601	273
1	1383	161.946307414601	274
1	1383	161.946307414601	275
1	1403	165.511109682309	276
1	1403	165.511109682309	277
1	1403	165.511109682309	278
1	1412	167.355837750248	279
1	1412	167.355837750248	280
1	1412	167.355837750248	281
1	1428	168.661993134354	282
1	1428	168.661993134354	283
1	1428	168.661993134354	284
1	1446	171.576852357791	285
1	1446	171.576852357791	286
1	1446	171.576852357791	287
1	1462	172.80091497511	288
1	1462	172.80091497511	289
1	1462	172.80091497511	290
1	1478	174.370054517438	291
1	1478	174.370054517438	292
1	1478	174.370054517438	293
1	1487	176.055771538151	294
1	1487	176.055771538151	295
1	1487	176.055771538151	296
1	1503	177.867180564334	297
1	1503	177.867180564334	298
1	1503	177.867180564334	299
1	1509	179.395947274106	300
1	1509	179.395947274106	301
1	1509	179.395947274106	302
1	1522	181.249191427414	303
1	1522	181.249191427414	304
1	1522	181.249191427414	305
1	1538	182.766175497342	306
1	1538	182.766175497342	307
1	1538	182.766175497342	308
1	1554	184.094198587487	309
1	1554	184.094198587487	310
1	1554	184.094198587487	311
1	1570	185.30394158024	312
1	1570	185.30394158024	313
1	1570	185.30394158024	314
1	1583	187.260669875668	315
1	1583	187.260669875668	316
1	1583	187.260669875668	317
1	1599	188.366778259139	318
1	1599	188.366778259139	319
1	1599	188.366778259139	320
1	1611	189.948823534877	321
1	1611	189.948823534877	322
1	1611	189.948823534877	323
1	1627	191.511963908903	324
1	1627	191.511963908903	325
1	1627	191.511963908903	326
1	1640	192.706138518581	327
1	1640	192.706138518581	328
1	1640	192.706138518581	329
1	1656	194.490257224498	330
1	1656	194.490257224498	331
1	1656	194.490257224498	332
1	1672	195.761816102043	333
1	1672	195.761816102043	334
1	1672	195.761816102043	335
1	1688	197.473993428403	336
1	1688	197.473993428403	337
1	1688	197.473993428403	338
1	1700	199.098652575757	339
1	1700	199.098652575757	340
1	1700	199.098652575757	341
1	1716	200.660242811357	342
1	1716	200.660242811357	343
1	1716	200.660242811357	344
1	1732	202.633918330956	345
1	1732	202.633918330956	346
1	1732	202.633918330956	347
1	1738	204.242882952686	348
1	1738	204.242882952686	349
1	1738	204.242882952686	350
1	1754	205.762456301482	351
1	1754	205.762456301482	352
1	1754	205.762456301482	353
1	1770	207.291073453731	354
1	1770	207.291073453731	355
1	1770	207.291073453731	356
1	1788	210.140332524412	357
1	1788	210.140332524412	358
1	1788	210.140332524412	359
1	1804	211.37498452919	360
1	1804	211.37498452919	361
1	1804	211.37498452919	362
1	1820	212.559121737721	363
1	1820	212.559121737721	364
1	1820	212.559121737721	365
1	1836	214.400544220199	366
1	1836	214.400544220199	367
1	1836	214.400544220199	368
1	1852	215.488131187398	369
1	1852	215.488131187398	370
1	1852	215.488131187398	371
1	1861	217.107036535726	372
1	1861	217.107036535726	373
1	1861	217.107036535726	374
1	1877	218.629330053459	375
1	1877	218.629330053459	376
1	1877	218.629330053459	377
1	1895	221.079423675428	378
1	1895	221.079423675428	379
1	1895	221.079423675428	380
1	1911	222.774014592921	381
1	1911	222.774014592921	382
1	1911	222.774014592921	383
1	1927	224.339665861337	384
1	1927	224.339665861337	385
1	1927	224.339665861337	386
1	1943	226.314244595669	387
1	1943	226.314244595669	388
1	1943	226.314244595669	389
1	1949	227.56338397932	390
1	1949	227.56338397932	391
1	1949	227.56338397932	392
1	1965	228.605554137917	393
1	1965	228.605554137917	394
1	1965	228.605554137917	395
1	1981	229.95488125113	396
1	1981	229.95488125113	397
1	1981	229.95488125113	398
1	1997	231.011893072897	399
1	1997	231.011893072897	400
1	1997	231.011893072897	401
1	2013	232.307426626946	402
1	2013	232.307426626946	403
1	2013	232.307426626946	404
1	2029	234.124467470861	405
1	2029	234.124467470861	406
1	2029	234.124467470861	407
1	2045	235.637435163008	408
1	2045	235.637435163008	409
1	2045	235.637435163008	410
1	2061	237.417803778623	411
1	2061	237.417803778623	412
1	2061	237.417803778623	413
2	7	0.227595799025	0
2	7	0.227595799025	1
2	30	4.031118406069	2
2	30	4.031118406069	3
2	45	5.619089142538	4
2	45	5.619089142538	5
2	65	7.447240383605	6
2	65	7.447240383605	7
2	78	9.279322957265	8
2	78	9.279322957265	9
2	93	10.485277172604	10
2	93	10.485277172604	11
2	109	12.072456835069	12
2	109	12.072456835069	13
2	126	13.304051772752	14
2	126	13.304051772752	15
2	141	14.992229928531	16
2	141	14.992229928531	17
2	154	16.0866013772	18
2	154	16.0866013772	19
2	173	17.159384010009	20
2	173	17.159384010009	21
2	186	18.821954887895	22
2	186	18.821954887895	23
2	202	20.492253676731	24
2	202	20.492253676731	25
2	217	24.098497393939	26
2	217	24.098497393939	27
2	235	25.746637092761	28
2	235	25.746637092761	29
2	266	30.411478493607	30
2	266	30.411478493607	31
2	276	31.950861668082	32
2	276	31.950861668082	33
2	291	33.411498210209	34
2	291	33.411498210209	35
2	315	38.007703196461	36
2	315	38.007703196461	37
2	332	39.255780486175	38
2	332	39.255780486175	39
2	350	40.517735403044	40
2	350	40.517735403044	41
2	363	41.935714843798	42
2	363	41.935714843798	43
2	373	42.985384416351	44
2	373	42.985384416351	45
2	388	44.518308292002	46
2	388	44.518308292002	47
2	404	45.84730738325	48
2	404	45.84730738325	49
2	420	46.993164377937	50
2	420	46.993164377937	51
2	443	51.111746897881	52
2	443	51.111746897881	53
2	463	52.701080978469	54
2	463	52.701080978469	55
2	483	56.96924000849	56
2	483	56.96924000849	57
2	496	58.380365381813	58
2	496	58.380365381813	59
2	512	59.494786298715	60
2	512	59.494786298715	61
2	528	60.88362275724	62
2	528	60.88362275724	63
2	551	62.326540799157	64
2	551	62.326540799157	65
2	560	63.99286020221	66
2	560	63.99286020221	67
2	589	67.499283183801	68
2	589	67.499283183801	69
2	605	69.52910670165	70
2	605	69.52910670165	71
2	623	72.505859826622	72
2	623	72.505859826622	73
2	632	73.765547387994	74
2	632	73.765547387994	75
2	654	79.812027567783	76
2	654	79.812027567783	77
2	670	81.118142555445	78
2	670	81.118142555445	79
2	687	82.949276005405	80
2	687	82.949276005405	81
2	703	84.034746919855	82
2	703	84.034746919855	83
2	718	85.168596965062	84
2	718	85.168596965062	85
2	734	87.168226084588	86
2	734	87.168226084588	87
2	750	88.666074302008	88
2	750	88.666074302008	89
2	766	90.35216198072	90
2	766	90.35216198072	91
2	785	92.240573173246	92
2	785	92.240573173246	93
2	802	93.752492331736	94
2	802	93.752492331736	95
2	814	95.533407881979	96
2	814	95.533407881979	97
2	837	97.060313893589	98
2	837	97.060313893589	99
2	853	98.757619835768	100
2	853	98.757619835768	101
2	876	102.317040146654	102
2	876	102.317040146654	103
2	898	104.247219117849	104
2	898	104.247219117849	105
2	916	106.461287032019	106
2	916	106.461287032019	107
2	925	108.359880529658	108
2	925	108.359880529658	109
2	942	110.152685569852	110
2	942	110.152685569852	111
2	964	111.777186498997	112
2	964	111.777186498997	113
2	980	113.486873604879	114
2	980	113.486873604879	115
2	990	114.847631199997	116
2	990	114.847631199997	117
2	1012	116.817251099839	118
2	1012	116.817251099839	119
2	1034	119.98055668724	120
2	1034	119.98055668724	121
2	1054	121.283038764452	122
2	1054	121.283038764452	123
2	1066	123.037045370693	124
2	1066	123.037045370693	125
2	1086	124.767813375469	126
2	1086	124.767813375469	127
2	1099	129.214104868396	128
2	1099	129.214104868396	129
2	1112	130.814652464046	130
2	1112	130.814652464046	131
2	1131	134.686518201661	132
2	1131	134.686518201661	133
2	1150	135.723771175691	134
2	1150	135.723771175691	135
2	1160	137.43716073082	136
2	1160	137.43716073082	137
2	1189	141.556346169894	138
2	1189	141.556346169894	139
2	1203	142.709997160953	140
2	1203	142.709997160953	141
2	1218	143.815061812265	142
2	1218	143.815061812265	143
2	1235	144.900502156961	144
2	1235	144.900502156961	145
2	1250	146.616669926156	146
2	1250	146.616669926156	147
2	1266	148.16613086775	148
2	1266	148.16613086775	149
2	1284	150.704005254516	150
2	1284	150.704005254516	151
2	1300	151.720529715988	152
2	1300	151.720529715988	153
2	1317	153.457074216723	154
2	1317	153.457074216723	155
2	1334	156.2452337759	156
2	1334	156.2452337759	157
2	1353	157.299554975745	158
2	1353	157.299554975745	159
2	1363	158.697972120985	160
2	1363	158.697972120985	161
2	1387	161.958324710137	162
2	1387	161.958324710137	163
2	1407	165.536804913607	164
2	1407	165.536804913607	165
2	1416	167.372976385107	166
2	1416	167.372976385107	167
2	1433	168.684864624319	168
2	1433	168.684864624319	169
2	1450	171.599336199882	170
2	1450	171.599336199882	171
2	1466	172.842154592425	172
2	1466	172.842154592425	173
2	1482	174.384068577435	174
2	1482	174.384068577435	175
2	1498	176.13408421678	176
2	1498	176.13408421678	177
2	1513	179.419536488613	178
2	1513	179.419536488613	179
2	1526	181.264549784093	180
2	1526	181.264549784093	181
2	1549	182.822990504766	182
2	1549	182.822990504766	183
2	1558	184.109160438618	184
2	1558	184.109160438618	185
2	1587	187.275987567729	186
2	1587	187.275987567729	187
2	1604	188.377302945213	188
2	1604	188.377302945213	189
2	1615	189.964116087256	190
2	1615	189.964116087256	191
2	1631	191.526318557868	192
2	1631	191.526318557868	193
2	1645	192.732229590127	194
2	1645	192.732229590127	195
2	1663	194.523080841334	196
2	1663	194.523080841334	197
2	1676	195.784014903465	198
2	1676	195.784014903465	199
2	1692	197.489885112817	200
2	1692	197.489885112817	201
2	1711	199.185208187939	202
2	1711	199.185208187939	203
2	1727	200.719924806385	204
2	1727	200.719924806385	205
2	1742	204.261672252744	206
2	1742	204.261672252744	207
2	1758	205.778107586502	208
2	1758	205.778107586502	209
2	1774	207.309608954981	210
2	1774	207.309608954981	211
2	1792	210.151585680264	212
2	1792	210.151585680264	213
2	1811	211.402359625561	214
2	1811	211.402359625561	215
2	1825	212.586096087267	216
2	1825	212.586096087267	217
2	1847	214.457248382629	218
2	1847	214.457248382629	219
2	1856	215.501765286815	220
2	1856	215.501765286815	221
2	1866	217.129149340524	222
2	1866	217.129149340524	223
2	1881	218.645131891488	224
2	1881	218.645131891488	225
2	1899	221.091030447949	226
2	1899	221.091030447949	227
2	1915	222.78436107822	228
2	1915	222.78436107822	229
2	1932	224.359090346628	230
2	1932	224.359090346628	231
2	1953	227.573512023981	232
2	1953	227.573512023981	233
2	1973	228.635463905784	234
2	1973	228.635463905784	235
2	1992	230.027317749187	236
2	1992	230.027317749187	237
2	2001	231.031529147827	238
2	2001	231.031529147827	239
2	2021	232.340055249127	240
2	2021	232.340055249127	241
2	2033	234.139111685289	242
2	2033	234.139111685289	243
2	2049	235.657131722657	244
2	2049	235.657131722657	245
2	2065	237.435623163932	246
2	2065	237.435623163932	247
3	8	0.228177698444	0
3	8	0.228177698444	1
3	29	4.023811308844	2
3	29	4.023811308844	3
3	52	5.641769708437	4
3	52	5.641769708437	5
3	61	7.427008867656	6
3	61	7.427008867656	7
3	77	9.273963514055	8
3	77	9.273963514055	9
3	94	10.49395605926	10
3	94	10.49395605926	11
3	116	12.123167223505	12
3	116	12.123167223505	13
3	125	13.299584530057	14
3	125	13.299584530057	15
3	161	16.11138914574	16
3	161	16.11138914574	17
3	170	17.142977817999	18
3	170	17.142977817999	19
3	189	18.846231028291	20
3	189	18.846231028291	21
3	203	20.492532639031	22
3	203	20.492532639031	23
3	216	24.091718733043	24
3	216	24.091718733043	25
3	232	25.735765742015	26
3	232	25.735765742015	27
3	250	28.63506861039	28
3	250	28.63506861039	29
3	259	30.370955187341	30
3	259	30.370955187341	31
3	275	31.94191944276	32
3	275	31.94191944276	33
3	292	33.417529906125	34
3	292	33.417529906125	35
3	316	38.015203772234	36
3	316	38.015203772234	37
3	331	39.246403081487	38
3	331	39.246403081487	39
3	347	40.496673414675	40
3	347	40.496673414675	41
3	372	42.981561121186	42
3	372	42.981561121186	43
3	395	44.572559568582	44
3	395	44.572559568582	45
3	411	45.879052397784	46
3	411	45.879052397784	47
3	423	47.005222056432	48
3	423	47.005222056432	49
3	440	51.089284523535	50
3	440	51.089284523535	51
3	456	52.664480464815	52
3	456	52.664480464815	53
3	480	56.950909391623	54
3	480	56.950909391623	55
3	503	58.411320525762	56
3	503	58.411320525762	57
3	515	59.506391138844	58
3	515	59.506391138844	59
3	535	60.91616244134	60
3	535	60.91616244134	61
3	544	62.299467654969	62
3	544	62.299467654969	63
3	561	63.999323605277	64
3	561	63.999323605277	65
3	576	65.90472872654	66
3	576	65.90472872654	67
3	598	69.499447126182	68
3	598	69.499447126182	69
3	616	72.48019574656	70
3	616	72.48019574656	71
3	633	73.772604161022	72
3	633	73.772604161022	73
3	655	79.813582360551	74
3	655	79.813582360551	75
3	677	81.162487689298	76
3	677	81.162487689298	77
3	686	82.946421396136	78
3	686	82.946421396136	79
3	702	84.028195883752	80
3	702	84.028195883752	81
3	719	85.177305734512	82
3	719	85.177305734512	83
3	735	87.172362036179	84
3	735	87.172362036179	85
3	753	88.685428338427	86
3	753	88.685428338427	87
3	767	90.355538095836	88
3	767	90.355538095836	89
3	782	92.229684564251	90
3	782	92.229684564251	91
3	798	93.738620158596	92
3	798	93.738620158596	93
3	821	95.564603447401	94
3	821	95.564603447401	95
3	830	97.023868450897	96
3	830	97.023868450897	97
3	846	98.706678155977	98
3	846	98.706678155977	99
3	862	100.545656700585	100
3	862	100.545656700585	101
3	875	102.315083283663	102
3	875	102.315083283663	103
3	891	104.21288961212	104
3	891	104.21288961212	105
3	909	106.404371191916	106
3	909	106.404371191916	107
3	926	108.364854664971	108
3	926	108.364854664971	109
3	941	110.151756797831	110
3	941	110.151756797831	111
3	957	111.726657406305	112
3	957	111.726657406305	113
3	973	113.447814237573	114
3	973	113.447814237573	115
3	989	114.843446571031	116
3	989	114.843446571031	117
3	1005	116.781444822423	118
3	1005	116.781444822423	119
3	1021	118.541522699103	120
3	1021	118.541522699103	121
3	1047	121.256843634357	122
3	1047	121.256843634357	123
3	1063	123.01976128859	124
3	1063	123.01976128859	125
3	1079	124.742902264763	126
3	1079	124.742902264763	127
3	1138	134.728541513381	128
3	1138	134.728541513381	129
3	1147	135.712216132636	130
3	1147	135.712216132636	131
3	1159	137.433450997807	132
3	1159	137.433450997807	133
3	1177	140.098638070748	134
3	1177	140.098638070748	135
3	1186	141.534580315855	136
3	1186	141.534580315855	137
3	1202	142.70331608683	138
3	1202	142.70331608683	139
3	1219	143.817312736385	140
3	1219	143.817312736385	141
3	1234	144.898316428025	142
3	1234	144.898316428025	143
3	1257	146.663583827189	144
3	1257	146.663583827189	145
3	1267	148.169119118186	146
3	1267	148.169119118186	147
3	1291	150.736043582538	148
3	1291	150.736043582538	149
3	1301	151.721711486121	150
3	1301	151.721711486121	151
3	1316	153.454365832582	152
3	1316	153.454365832582	153
3	1338	156.279599812431	154
3	1338	156.279599812431	155
3	1350	157.28886064696	156
3	1350	157.28886064696	157
3	1362	158.689689616236	158
3	1362	158.689689616236	159
3	1378	160.431990361209	160
3	1378	160.431990361209	161
3	1390	161.969376843112	162
3	1390	161.969376843112	163
3	1417	167.374126962316	164
3	1417	167.374126962316	165
3	1432	168.680015822688	166
3	1432	168.680015822688	167
3	1457	171.628603008632	168
3	1457	171.628603008632	169
3	1473	172.866168003259	170
3	1473	172.866168003259	171
3	1491	176.0758953091	172
3	1491	176.0758953091	173
3	1533	181.315353650032	174
3	1533	181.315353650032	175
3	1542	182.784982163799	176
3	1542	182.784982163799	177
3	1561	184.125798802589	178
3	1561	184.125798802589	179
3	1574	185.327380092235	180
3	1574	185.327380092235	181
3	1588	187.283533157108	182
3	1588	187.283533157108	183
3	1603	188.377171887386	184
3	1603	188.377171887386	185
3	1619	189.987618602997	186
3	1619	189.987618602997	187
3	1644	192.728154316129	188
3	1644	192.728154316129	189
3	1660	194.510852417607	190
3	1660	194.510852417607	191
3	1679	195.794943271491	192
3	1679	195.794943271491	193
3	1693	197.491278180867	194
3	1693	197.491278180867	195
3	1704	199.117952334715	196
3	1704	199.117952334715	197
3	1720	200.672694910221	198
3	1720	200.672694910221	199
3	1743	204.265397041031	200
3	1743	204.265397041031	201
3	1759	205.783235065968	202
3	1759	205.783235065968	203
3	1781	207.346694185849	204
3	1781	207.346694185849	205
3	1793	210.153471809493	206
3	1793	210.153471809493	207
3	1808	211.390046935258	208
3	1808	211.390046935258	209
3	1824	212.581534661641	210
3	1824	212.581534661641	211
3	1840	214.419119549938	212
3	1840	214.419119549938	213
3	1865	217.119195105503	214
3	1865	217.119195105503	215
3	1882	218.646593278018	216
3	1882	218.646593278018	217
3	1900	221.091425089001	218
3	1900	221.091425089001	219
3	1916	222.784384858028	220
3	1916	222.784384858028	221
3	1931	224.349993416514	222
3	1931	224.349993416514	223
3	1960	227.598505483153	224
3	1960	227.598505483153	225
3	1969	228.618818520691	226
3	1969	228.618818520691	227
3	1985	229.974881115062	228
3	1985	229.974881115062	229
3	2002	231.03336774295	230
3	2002	231.03336774295	231
3	2017	232.317488359866	232
3	2017	232.317488359866	233
3	2040	234.172335422308	234
3	2040	234.172335422308	235
3	2052	235.674841624649	236
3	2052	235.674841624649	237
3	2066	237.442135447785	238
3	2066	237.442135447785	239
4	13	0.239121067698	0
4	13	0.239121067698	1
4	13	0.239121067698	2
4	35	4.044217325469	3
4	35	4.044217325469	4
4	35	4.044217325469	5
4	48	5.630990648826	6
4	48	5.630990648826	7
4	48	5.630990648826	8
4	64	7.440033063421	9
4	64	7.440033063421	10
4	64	7.440033063421	11
4	83	9.293978296648	12
4	83	9.293978296648	13
4	83	9.293978296648	14
4	97	10.498192863564	15
4	97	10.498192863564	16
4	97	10.498192863564	17
4	112	12.10751401691	18
4	112	12.10751401691	19
4	112	12.10751401691	20
4	131	13.322806132209	21
4	131	13.322806132209	22
4	131	13.322806132209	23
4	144	15.009460508846	24
4	144	15.009460508846	25
4	144	15.009460508846	26
4	157	16.101170587708	27
4	157	16.101170587708	28
4	157	16.101170587708	29
4	176	17.169592734146	30
4	176	17.169592734146	31
4	176	17.169592734146	32
4	192	18.862629392443	33
4	192	18.862629392443	34
4	192	18.862629392443	35
4	220	24.105987428685	36
4	220	24.105987428685	37
4	220	24.105987428685	38
4	236	25.747674681504	39
4	236	25.747674681504	40
4	236	25.747674681504	41
4	262	30.3919380627	42
4	262	30.3919380627	43
4	262	30.3919380627	44
4	279	31.958850143679	45
4	279	31.958850143679	46
4	279	31.958850143679	47
4	297	33.434575060285	48
4	297	33.434575060285	49
4	297	33.434575060285	50
4	321	38.077240984715	51
4	321	38.077240984715	52
4	321	38.077240984715	53
4	337	39.270235751548	54
4	337	39.270235751548	55
4	337	39.270235751548	56
4	353	40.573904713884	57
4	353	40.573904713884	58
4	353	40.573904713884	59
4	378	43.018648500855	60
4	378	43.018648500855	61
4	378	43.018648500855	62
4	391	44.533102114958	63
4	391	44.533102114958	64
4	391	44.533102114958	65
4	407	45.863522157685	66
4	407	45.863522157685	67
4	407	45.863522157685	68
4	426	47.019871559996	69
4	426	47.019871559996	70
4	426	47.019871559996	71
4	446	51.135083927228	72
4	446	51.135083927228	73
4	446	51.135083927228	74
4	459	52.682471659758	75
4	459	52.682471659758	76
4	459	52.682471659758	77
4	484	56.971019088124	78
4	484	56.971019088124	79
4	484	56.971019088124	80
4	499	58.391315904145	81
4	499	58.391315904145	82
4	499	58.391315904145	83
4	516	59.515095139632	84
4	516	59.515095139632	85
4	516	59.515095139632	86
4	531	60.904566672534	87
4	531	60.904566672534	88
4	531	60.904566672534	89
4	547	62.313992865547	90
4	547	62.313992865547	91
4	547	62.313992865547	92
4	566	64.01491247797	93
4	566	64.01491247797	94
4	566	64.01491247797	95
4	579	65.942943554376	96
4	579	65.942943554376	97
4	579	65.942943554376	98
4	601	69.51262777635	99
4	601	69.51262777635	100
4	601	69.51262777635	101
4	619	72.494631044324	102
4	619	72.494631044324	103
4	619	72.494631044324	104
4	638	73.786264782842	105
4	638	73.786264782842	106
4	638	73.786264782842	107
4	660	79.845942767053	108
4	660	79.845942767053	109
4	660	79.845942767053	110
4	673	81.136394775091	111
4	673	81.136394775091	112
4	673	81.136394775091	113
4	692	82.964409749801	114
4	692	82.964409749801	115
4	692	82.964409749801	116
4	708	84.051280182904	117
4	708	84.051280182904	118
4	708	84.051280182904	119
4	724	85.197781996977	120
4	724	85.197781996977	121
4	724	85.197781996977	122
4	740	87.18886112168	123
4	740	87.18886112168	124
4	740	87.18886112168	125
4	754	88.686149898866	126
4	754	88.686149898866	127
4	754	88.686149898866	128
4	770	90.36301444485	129
4	770	90.36301444485	130
4	770	90.36301444485	131
4	788	92.256326853378	132
4	788	92.256326853378	133
4	788	92.256326853378	134
4	801	93.748740088137	135
4	801	93.748740088137	136
4	801	93.748740088137	137
4	817	95.546109478798	138
4	817	95.546109478798	139
4	817	95.546109478798	140
4	833	97.044525093739	141
4	833	97.044525093739	142
4	833	97.044525093739	143
4	849	98.730052499906	144
4	849	98.730052499906	145
4	849	98.730052499906	146
4	865	100.562274891398	147
4	865	100.562274891398	148
4	865	100.562274891398	149
4	881	102.336101487219	150
4	881	102.336101487219	151
4	881	102.336101487219	152
4	894	104.22651857653	153
4	894	104.22651857653	154
4	894	104.22651857653	155
4	912	106.438693044772	156
4	912	106.438693044772	157
4	912	106.438693044772	158
4	929	108.370513975533	159
4	929	108.370513975533	160
4	929	108.370513975533	161
4	947	110.166608058001	162
4	947	110.166608058001	163
4	947	110.166608058001	164
4	960	111.75832553498	165
4	960	111.75832553498	166
4	960	111.75832553498	167
4	976	113.467506498951	168
4	976	113.467506498951	169
4	976	113.467506498951	170
4	993	114.857021212848	171
4	993	114.857021212848	172
4	993	114.857021212848	173
4	1008	116.804142334256	174
4	1008	116.804142334256	175
4	1008	116.804142334256	176
4	1024	118.560329216406	177
4	1024	118.560329216406	178
4	1024	118.560329216406	179
4	1037	120.005443922687	180
4	1037	120.005443922687	181
4	1037	120.005443922687	182
4	1050	121.269632566528	183
4	1050	121.269632566528	184
4	1050	121.269632566528	185
4	1067	123.041369759213	186
4	1067	123.041369759213	187
4	1067	123.041369759213	188
4	1082	124.752911335627	189
4	1082	124.752911335627	190
4	1082	124.752911335627	191
4	1102	129.233258061655	192
4	1102	129.233258061655	193
4	1102	129.233258061655	194
4	1115	130.828819709722	195
4	1115	130.828819709722	196
4	1115	130.828819709722	197
4	1134	134.702942059527	198
4	1134	134.702942059527	199
4	1134	134.702942059527	200
4	1165	137.449365704001	201
4	1165	137.449365704001	202
4	1165	137.449365704001	203
4	1192	141.566766409868	204
4	1192	141.566766409868	205
4	1192	141.566766409868	206
4	1206	142.718072441292	207
4	1206	142.718072441292	208
4	1206	142.718072441292	209
4	1222	143.825964379479	210
4	1222	143.825964379479	211
4	1222	143.825964379479	212
4	1240	144.910506301431	213
4	1240	144.910506301431	214
4	1240	144.910506301431	215
4	1253	146.642990187187	216
4	1253	146.642990187187	217
4	1253	146.642990187187	218
4	1272	148.195296915193	219
4	1272	148.195296915193	220
4	1272	148.195296915193	221
4	1287	150.72448981633	222
4	1287	150.72448981633	223
4	1287	150.72448981633	224
4	1306	151.739232574357	225
4	1306	151.739232574357	226
4	1306	151.739232574357	227
4	1322	153.470861140613	228
4	1322	153.470861140613	229
4	1322	153.470861140613	230
4	1337	156.271221997208	231
4	1337	156.271221997208	232
4	1337	156.271221997208	233
4	1368	158.719406389365	234
4	1368	158.719406389365	235
4	1368	158.719406389365	236
4	1393	161.983324660432	237
4	1393	161.983324660432	238
4	1393	161.983324660432	239
4	1422	167.42474412972	240
4	1422	167.42474412972	241
4	1422	167.42474412972	242
4	1438	168.701801456608	243
4	1438	168.701801456608	244
4	1438	168.701801456608	245
4	1453	171.617353551656	246
4	1453	171.617353551656	247
4	1453	171.617353551656	248
4	1469	172.854898521972	249
4	1469	172.854898521972	250
4	1469	172.854898521972	251
4	1494	176.091661519561	252
4	1494	176.091661519561	253
4	1494	176.091661519561	254
4	1516	179.434780127409	255
4	1516	179.434780127409	256
4	1516	179.434780127409	257
4	1529	181.277505788418	258
4	1529	181.277505788418	259
4	1529	181.277505788418	260
4	1545	182.805916203822	261
4	1545	182.805916203822	262
4	1545	182.805916203822	263
4	1564	184.140821630635	264
4	1564	184.140821630635	265
4	1564	184.140821630635	266
4	1577	185.369632766898	267
4	1577	185.369632766898	268
4	1577	185.369632766898	269
4	1593	187.319917662415	270
4	1593	187.319917662415	271
4	1593	187.319917662415	272
4	1618	189.977709038146	273
4	1618	189.977709038146	274
4	1618	189.977709038146	275
4	1634	191.541545738632	276
4	1634	191.541545738632	277
4	1634	191.541545738632	278
4	1650	192.765022042011	279
4	1650	192.765022042011	280
4	1650	192.765022042011	281
4	1666	194.568722008761	282
4	1666	194.568722008761	283
4	1666	194.568722008761	284
4	1682	195.856292657575	285
4	1682	195.856292657575	286
4	1682	195.856292657575	287
4	1707	199.161609009004	288
4	1707	199.161609009004	289
4	1707	199.161609009004	290
4	1723	200.69544448859	291
4	1723	200.69544448859	292
4	1723	200.69544448859	293
4	1748	204.308312344441	294
4	1748	204.308312344441	295
4	1748	204.308312344441	296
4	1764	205.796973496102	297
4	1764	205.796973496102	298
4	1764	205.796973496102	299
4	1777	207.321983587378	300
4	1777	207.321983587378	301
4	1777	207.321983587378	302
4	1798	210.177559731319	303
4	1798	210.177559731319	304
4	1798	210.177559731319	305
4	1814	211.412495139745	306
4	1814	211.412495139745	307
4	1814	211.412495139745	308
4	1830	212.605433916244	309
4	1830	212.605433916244	310
4	1830	212.605433916244	311
4	1843	214.430813577406	312
4	1843	214.430813577406	313
4	1843	214.430813577406	314
4	1871	217.14347339177	315
4	1871	217.14347339177	316
4	1871	217.14347339177	317
4	1885	218.655927503287	318
4	1885	218.655927503287	319
4	1885	218.655927503287	320
4	1905	221.110910518803	321
4	1905	221.110910518803	322
4	1905	221.110910518803	323
4	1921	222.802259487471	324
4	1921	222.802259487471	325
4	1921	222.802259487471	326
4	1937	224.370215175623	327
4	1937	224.370215175623	328
4	1937	224.370215175623	329
4	1956	227.585513898359	330
4	1956	227.585513898359	331
4	1956	227.585513898359	332
4	1972	228.629493488421	333
4	1972	228.629493488421	334
4	1972	228.629493488421	335
4	1988	230.003391078986	336
4	1988	230.003391078986	337
4	1988	230.003391078986	338
4	2007	231.0468421568	339
4	2007	231.0468421568	340
4	2007	231.0468421568	341
4	2020	232.334141335473	342
4	2020	232.334141335473	343
4	2020	232.334141335473	344
4	2036	234.150980434048	345
4	2036	234.150980434048	346
4	2036	234.150980434048	347
4	2055	235.690828225998	348
4	2055	235.690828225998	349
4	2055	235.690828225998	350
4	2069	237.445623191807	351
4	2069	237.445623191807	352
4	2069	237.445623191807	353
5	16	0.249121067698	0
5	38	4.054217325469	1
5	51	5.640990648826	2
5	102	10.508192863564	3
5	115	12.11751401691	4
5	160	16.111170587708	5
5	179	17.179592734146	6
5	195	18.872629392443	7
5	241	25.757674681504	8
5	265	30.4019380627	9
5	284	31.968850143679	10
5	324	38.087240984715	11
5	340	39.280235751548	12
5	356	40.583904713884	13
5	381	43.028648500855	14
5	394	44.543102114958	15
5	410	45.873522157685	16
5	449	51.145083927228	17
5	462	52.692471659758	18
5	489	56.981019088124	19
5	502	58.401315904145	20
5	521	59.525095139632	21
5	534	60.914566672534	22
5	550	62.323992865547	23
5	569	64.02491247797	24
5	582	65.952943554376	25
5	604	69.52262777635	26
5	622	72.504631044324	27
5	663	79.855942767053	28
5	676	81.146394775091	29
5	695	82.974409749801	30
5	727	85.207781996977	31
5	743	87.19886112168	32
5	759	88.696149898866	33
5	775	90.37301444485	34
5	791	92.266326853378	35
5	820	95.556109478798	36
5	836	97.054525093739	37
5	852	98.740052499906	38
5	868	100.572274891398	39
5	897	104.23651857653	40
5	915	106.448693044772	41
5	934	108.380513975533	42
5	950	110.176608058001	43
5	979	113.477506498951	44
5	998	114.867021212848	45
5	1011	116.814142334256	46
5	1027	118.570329216406	47
5	1040	120.015443922687	48
5	1053	121.279632566528	49
5	1072	123.051369759213	50
5	1085	124.762911335627	51
5	1105	129.243258061655	52
5	1137	134.712942059527	53
5	1211	142.728072441292	54
5	1256	146.652990187187	55
5	1275	148.205296915193	56
5	1290	150.73448981633	57
5	1309	151.749232574357	58
5	1325	153.480861140613	59
5	1341	156.281221997208	60
5	1371	158.729406389365	61
5	1425	167.43474412972	62
5	1441	168.711801456608	63
5	1456	171.627353551656	64
5	1472	172.864898521972	65
5	1497	176.101661519561	66
5	1519	179.444780127409	67
5	1532	181.287505788418	68
5	1548	182.815916203822	69
5	1567	184.150821630635	70
5	1580	185.379632766898	71
5	1596	187.329917662415	72
5	1622	189.987709038146	73
5	1653	192.775022042011	74
5	1669	194.578722008761	75
5	1685	195.866292657575	76
5	1710	199.171609009004	77
5	1726	200.70544448859	78
5	1751	204.318312344441	79
5	1767	205.806973496102	80
5	1780	207.331983587378	81
5	1801	210.187559731319	82
5	1833	212.615433916244	83
5	1874	217.15347339177	84
5	1890	218.665927503287	85
5	1908	221.120910518803	86
5	1940	224.380215175623	87
5	1959	227.595513898359	88
5	1976	228.639493488421	89
5	1991	230.013391078986	90
5	2010	231.0568421568	91
5	2024	232.344141335473	92
5	2074	237.455623191807	93

