version 2
run General-2-20231008-05:34:47-14246
attr configname General
attr datetime 20231008-05:34:47
attr experiment General
attr inifile omnetpp.ini
attr iterationvars ""
attr iterationvarsf ""
attr measurement ""
attr network Reliability
attr processid 14246
attr repetition 2
attr replication #2
attr resultdir results
attr runnumber 2
attr seedset 2
param Reliability.node[*].transmissionTime "uniform(1s, 2s)"
param Reliability.node[*].delayTime "uniform(0.01s, 0.2s)"
param Reliability.node[*].processingTime exponential(0.01s)
param Reliability.node[*].lossProbability 0.2

vector 0 Reliability.node[0] txVector ETV
vector 1 Reliability.node[1] txVector ETV
vector 2 Reliability.node[3] txVector ETV
vector 3 Reliability.node[2] txVector ETV
vector 4 Reliability.node[4] txVector ETV
vector 5 Reliability.node[5] rxVector ETV
0	1	0.092839031499	0
0	3	1.277921112972	1
0	19	3.20946197656	2
0	35	4.84219970719	3
0	51	6.249507539692	4
0	67	7.815272670026	5
0	83	9.608362413031	6
0	99	10.825632332844	7
0	115	12.623832721749	8
0	131	14.512136468218	9
0	147	15.835010685279	10
0	163	17.228943976593	11
0	179	18.592269867911	12
0	195	19.973962806418	13
0	197	21.76013505228	14
0	213	23.292279493084	15
0	229	24.508085890461	16
0	245	25.548097125508	17
0	247	27.484345168827	18
0	249	28.948087776799	19
0	258	30.800376737045	20
0	274	31.987663281171	21
0	276	33.976172987393	22
0	292	35.025041073815	23
0	308	36.823926588076	24
0	321	37.876149312381	25
0	337	39.1465032818	26
0	353	40.631557048086	27
0	369	42.004598103018	28
0	385	43.951292226577	29
0	401	45.793289910557	30
0	417	47.174952487948	31
0	433	48.842279654949	32
0	449	50.70330733226	33
0	451	51.973485092189	34
0	467	53.839665333995	35
0	476	55.438211715569	36
0	478	56.825112060665	37
0	480	58.680231728147	38
0	496	60.061024309158	39
0	502	61.851268107559	40
0	515	63.690170705107	41
0	517	64.932508208112	42
0	529	66.139126959278	43
0	545	67.475419930204	44
0	561	68.693327251611	45
0	574	70.225712157575	46
0	576	71.849096873797	47
0	578	73.202310769608	48
0	594	74.367089392407	49
0	596	75.803759278054	50
0	598	76.818815412488	51
0	607	78.711721290624	52
0	616	80.286167632811	53
0	632	81.53745054875	54
0	648	82.874818838923	55
0	664	84.232337069954	56
0	670	85.330297463131	57
0	686	87.265451024077	58
0	702	88.38255605523	59
0	718	89.707612858643	60
0	734	90.842039616802	61
0	750	92.627837477275	62
0	752	93.822631805693	63
0	768	94.885437246436	64
0	784	95.981527949474	65
0	800	97.554340236844	66
0	816	98.774641891267	67
0	832	100.307482783474	68
0	848	101.679903302366	69
0	864	103.256612963999	70
0	880	104.480614281982	71
0	882	106.027003256861	72
0	898	107.771364148032	73
0	900	109.433999354743	74
0	916	110.495153118881	75
0	932	111.866388217105	76
0	948	113.817681972893	77
0	961	115.387658629125	78
0	977	116.51264578479	79
0	993	118.342274954334	80
0	1009	119.846296901373	81
0	1025	121.51025931167	82
0	1041	123.051227408718	83
0	1057	124.423431989295	84
0	1059	125.746388630034	85
0	1075	127.573186110496	86
0	1091	128.616407002579	87
0	1107	130.15582514091	88
0	1123	131.584030527878	89
0	1139	133.31456556127	90
0	1155	135.186257099291	91
0	1171	136.324735615892	92
0	1187	137.933646458225	93
0	1203	139.644813123183	94
0	1219	140.847704382637	95
0	1231	142.149359459314	96
0	1247	143.894235715759	97
0	1263	145.720341190952	98
0	1279	146.830273389607	99
0	1295	148.734026773623	100
0	1311	150.543370115361	101
0	1313	152.16532845844	102
0	1319	153.213258147728	103
0	1335	154.332873489265	104
0	1351	156.220307753444	105
0	1367	158.11913785783	106
0	1383	159.581416766181	107
0	1399	161.274602178739	108
0	1401	162.275070649594	109
0	1417	163.685054978611	110
0	1433	165.563235132046	111
0	1442	166.806003006663	112
0	1458	168.405403081117	113
0	1474	169.466184907149	114
0	1476	170.681753148579	115
0	1492	172.007644000252	116
0	1508	173.80924577664	117
0	1510	175.306133779719	118
0	1526	176.43236643311	119
0	1542	177.507866143271	120
0	1558	178.875799454771	121
0	1574	180.418722363211	122
0	1576	181.538603015033	123
0	1592	182.797135459979	124
0	1608	184.51393086605	125
0	1624	186.15820517719	126
0	1633	187.855434574906	127
0	1649	189.436202542411	128
0	1665	190.684249189004	129
0	1681	192.003148630747	130
0	1690	193.825405336238	131
0	1699	194.835917522685	132
0	1708	196.230027717558	133
0	1720	197.574212779311	134
0	1722	198.758717048235	135
0	1738	200.319848742589	136
0	1754	201.563031215706	137
0	1770	202.631009376162	138
0	1786	203.697600038043	139
0	1788	204.705533978549	140
0	1804	206.25641684306	141
0	1820	207.697111468317	142
0	1836	208.858065941857	143
0	1852	210.029922281412	144
0	1868	211.429104496745	145
0	1884	212.58691778036	146
0	1893	214.108283315806	147
0	1909	215.644447215155	148
0	1911	216.847533174346	149
0	1927	218.472033452962	150
0	1943	219.651314760114	151
0	1952	220.807041481159	152
0	1968	222.303592360833	153
0	1984	223.359525801636	154
0	2000	224.592448511649	155
0	2002	226.214291108562	156
0	2018	227.779870123159	157
0	2034	229.140392822701	158
0	2050	230.678611817792	159
0	2066	231.997104333037	160
0	2082	233.291926781436	161
0	2084	234.478274314919	162
0	2086	236.266040664654	163
0	2102	237.990284478314	164
0	2118	239.507738984445	165
1	5	1.317434556699	0
1	5	1.317434556699	1
1	5	1.317434556699	2
1	21	3.236511927501	3
1	21	3.236511927501	4
1	21	3.236511927501	5
1	37	4.854147511143	6
1	37	4.854147511143	7
1	37	4.854147511143	8
1	53	6.26201570879	9
1	53	6.26201570879	10
1	53	6.26201570879	11
1	69	7.836151227375	12
1	69	7.836151227375	13
1	69	7.836151227375	14
1	85	9.668368706119	15
1	85	9.668368706119	16
1	85	9.668368706119	17
1	101	10.852459863436	18
1	101	10.852459863436	19
1	101	10.852459863436	20
1	117	12.662167717085	21
1	117	12.662167717085	22
1	117	12.662167717085	23
1	133	14.53648837348	24
1	133	14.53648837348	25
1	133	14.53648837348	26
1	149	15.87112174637	27
1	149	15.87112174637	28
1	149	15.87112174637	29
1	165	17.24593979331	30
1	165	17.24593979331	31
1	165	17.24593979331	32
1	181	18.635093237342	33
1	181	18.635093237342	34
1	181	18.635093237342	35
1	199	21.804646464661	36
1	199	21.804646464661	37
1	199	21.804646464661	38
1	215	23.318741089915	39
1	215	23.318741089915	40
1	215	23.318741089915	41
1	231	24.531284310471	42
1	231	24.531284310471	43
1	231	24.531284310471	44
1	251	28.960480091645	45
1	251	28.960480091645	46
1	251	28.960480091645	47
1	260	30.811378123774	48
1	260	30.811378123774	49
1	260	30.811378123774	50
1	278	33.988814182685	51
1	278	33.988814182685	52
1	278	33.988814182685	53
1	294	35.035358535625	54
1	294	35.035358535625	55
1	294	35.035358535625	56
1	310	36.83460577617	57
1	310	36.83460577617	58
1	310	36.83460577617	59
1	323	37.886175171532	60
1	323	37.886175171532	61
1	323	37.886175171532	62
1	339	39.170123672147	63
1	339	39.170123672147	64
1	339	39.170123672147	65
1	355	40.641665644848	66
1	355	40.641665644848	67
1	355	40.641665644848	68
1	371	42.018075874262	69
1	371	42.018075874262	70
1	371	42.018075874262	71
1	387	43.961615442967	72
1	387	43.961615442967	73
1	387	43.961615442967	74
1	403	45.836751508223	75
1	403	45.836751508223	76
1	403	45.836751508223	77
1	419	47.196749156294	78
1	419	47.196749156294	79
1	419	47.196749156294	80
1	435	48.85557664707	81
1	435	48.85557664707	82
1	435	48.85557664707	83
1	453	52.019981435819	84
1	453	52.019981435819	85
1	453	52.019981435819	86
1	469	53.851296248041	87
1	469	53.851296248041	88
1	469	53.851296248041	89
1	482	58.692195646869	90
1	482	58.692195646869	91
1	482	58.692195646869	92
1	498	60.085393251184	93
1	498	60.085393251184	94
1	498	60.085393251184	95
1	504	61.867462222822	96
1	504	61.867462222822	97
1	504	61.867462222822	98
1	519	64.94803179385	99
1	519	64.94803179385	100
1	519	64.94803179385	101
1	531	66.154338723228	102
1	531	66.154338723228	103
1	531	66.154338723228	104
1	547	67.503435959011	105
1	547	67.503435959011	106
1	547	67.503435959011	107
1	563	68.708482198983	108
1	563	68.708482198983	109
1	563	68.708482198983	110
1	580	73.234675577469	111
1	580	73.234675577469	112
1	580	73.234675577469	113
1	600	76.829111238514	114
1	600	76.829111238514	115
1	600	76.829111238514	116
1	609	78.727105197839	117
1	609	78.727105197839	118
1	609	78.727105197839	119
1	618	80.31747374344	120
1	618	80.31747374344	121
1	618	80.31747374344	122
1	634	81.577818320752	123
1	634	81.577818320752	124
1	634	81.577818320752	125
1	650	82.884913792034	126
1	650	82.884913792034	127
1	650	82.884913792034	128
1	666	84.249203304966	129
1	666	84.249203304966	130
1	666	84.249203304966	131
1	672	85.342605411061	132
1	672	85.342605411061	133
1	672	85.342605411061	134
1	688	87.287138749902	135
1	688	87.287138749902	136
1	688	87.287138749902	137
1	704	88.419118760959	138
1	704	88.419118760959	139
1	704	88.419118760959	140
1	720	89.720423156297	141
1	720	89.720423156297	142
1	720	89.720423156297	143
1	736	90.85763522959	144
1	736	90.85763522959	145
1	736	90.85763522959	146
1	754	93.836322302318	147
1	754	93.836322302318	148
1	754	93.836322302318	149
1	770	94.897206807533	150
1	770	94.897206807533	151
1	770	94.897206807533	152
1	786	95.994612832728	153
1	786	95.994612832728	154
1	786	95.994612832728	155
1	802	97.572615195093	156
1	802	97.572615195093	157
1	802	97.572615195093	158
1	818	98.801058156355	159
1	818	98.801058156355	160
1	818	98.801058156355	161
1	834	100.341510143348	162
1	834	100.341510143348	163
1	834	100.341510143348	164
1	850	101.690184666798	165
1	850	101.690184666798	166
1	850	101.690184666798	167
1	866	103.294946122133	168
1	866	103.294946122133	169
1	866	103.294946122133	170
1	884	106.04159829802	171
1	884	106.04159829802	172
1	884	106.04159829802	173
1	902	109.4486637972	174
1	902	109.4486637972	175
1	902	109.4486637972	176
1	918	110.53335370508	177
1	918	110.53335370508	178
1	918	110.53335370508	179
1	934	111.878071640589	180
1	934	111.878071640589	181
1	934	111.878071640589	182
1	950	113.854883719305	183
1	950	113.854883719305	184
1	950	113.854883719305	185
1	963	115.401128175882	186
1	963	115.401128175882	187
1	963	115.401128175882	188
1	979	116.526462790909	189
1	979	116.526462790909	190
1	979	116.526462790909	191
1	995	118.368608093288	192
1	995	118.368608093288	193
1	995	118.368608093288	194
1	1011	119.871705429615	195
1	1011	119.871705429615	196
1	1011	119.871705429615	197
1	1027	121.52519511273	198
1	1027	121.52519511273	199
1	1027	121.52519511273	200
1	1043	123.064299994678	201
1	1043	123.064299994678	202
1	1043	123.064299994678	203
1	1061	125.771912568083	204
1	1061	125.771912568083	205
1	1061	125.771912568083	206
1	1077	127.583919315249	207
1	1077	127.583919315249	208
1	1077	127.583919315249	209
1	1093	128.626640798006	210
1	1093	128.626640798006	211
1	1093	128.626640798006	212
1	1109	130.173981536691	213
1	1109	130.173981536691	214
1	1109	130.173981536691	215
1	1125	131.59430368677	216
1	1125	131.59430368677	217
1	1125	131.59430368677	218
1	1141	133.327544203087	219
1	1141	133.327544203087	220
1	1141	133.327544203087	221
1	1157	135.199878444602	222
1	1157	135.199878444602	223
1	1157	135.199878444602	224
1	1173	136.345845083078	225
1	1173	136.345845083078	226
1	1173	136.345845083078	227
1	1189	137.977762569613	228
1	1189	137.977762569613	229
1	1189	137.977762569613	230
1	1205	139.688411615736	231
1	1205	139.688411615736	232
1	1205	139.688411615736	233
1	1221	140.874251068748	234
1	1221	140.874251068748	235
1	1221	140.874251068748	236
1	1233	142.160690775571	237
1	1233	142.160690775571	238
1	1233	142.160690775571	239
1	1249	143.911242596836	240
1	1249	143.911242596836	241
1	1249	143.911242596836	242
1	1265	145.736628779991	243
1	1265	145.736628779991	244
1	1265	145.736628779991	245
1	1281	146.870776484229	246
1	1281	146.870776484229	247
1	1281	146.870776484229	248
1	1297	148.7441938493	249
1	1297	148.7441938493	250
1	1297	148.7441938493	251
1	1315	152.175426127821	252
1	1315	152.175426127821	253
1	1315	152.175426127821	254
1	1321	153.257724022886	255
1	1321	153.257724022886	256
1	1321	153.257724022886	257
1	1337	154.347767471062	258
1	1337	154.347767471062	259
1	1337	154.347767471062	260
1	1353	156.230925167497	261
1	1353	156.230925167497	262
1	1353	156.230925167497	263
1	1369	158.148689119074	264
1	1369	158.148689119074	265
1	1369	158.148689119074	266
1	1385	159.592169379095	267
1	1385	159.592169379095	268
1	1385	159.592169379095	269
1	1403	162.30709176837	270
1	1403	162.30709176837	271
1	1403	162.30709176837	272
1	1419	163.705874326336	273
1	1419	163.705874326336	274
1	1419	163.705874326336	275
1	1435	165.573442922036	276
1	1435	165.573442922036	277
1	1435	165.573442922036	278
1	1444	166.822579434531	279
1	1444	166.822579434531	280
1	1444	166.822579434531	281
1	1460	168.431224775915	282
1	1460	168.431224775915	283
1	1460	168.431224775915	284
1	1478	170.697094689091	285
1	1478	170.697094689091	286
1	1478	170.697094689091	287
1	1494	172.063052052692	288
1	1494	172.063052052692	289
1	1494	172.063052052692	290
1	1512	175.344513629124	291
1	1512	175.344513629124	292
1	1512	175.344513629124	293
1	1528	176.470884361721	294
1	1528	176.470884361721	295
1	1528	176.470884361721	296
1	1544	177.526383722205	297
1	1544	177.526383722205	298
1	1544	177.526383722205	299
1	1560	178.898231817991	300
1	1560	178.898231817991	301
1	1560	178.898231817991	302
1	1578	181.554513203855	303
1	1578	181.554513203855	304
1	1578	181.554513203855	305
1	1594	182.809672910677	306
1	1594	182.809672910677	307
1	1594	182.809672910677	308
1	1610	184.526781429745	309
1	1610	184.526781429745	310
1	1610	184.526781429745	311
1	1626	186.181973800541	312
1	1626	186.181973800541	313
1	1626	186.181973800541	314
1	1635	187.873254625495	315
1	1635	187.873254625495	316
1	1635	187.873254625495	317
1	1651	189.447701340976	318
1	1651	189.447701340976	319
1	1651	189.447701340976	320
1	1667	190.707726010868	321
1	1667	190.707726010868	322
1	1667	190.707726010868	323
1	1683	192.035803545518	324
1	1683	192.035803545518	325
1	1683	192.035803545518	326
1	1692	193.840609623213	327
1	1692	193.840609623213	328
1	1692	193.840609623213	329
1	1701	194.853760915781	330
1	1701	194.853760915781	331
1	1701	194.853760915781	332
1	1710	196.240049832383	333
1	1710	196.240049832383	334
1	1710	196.240049832383	335
1	1724	198.774690672908	336
1	1724	198.774690672908	337
1	1724	198.774690672908	338
1	1740	200.331322967702	339
1	1740	200.331322967702	340
1	1740	200.331322967702	341
1	1756	201.580808662321	342
1	1756	201.580808662321	343
1	1756	201.580808662321	344
1	1772	202.647018460522	345
1	1772	202.647018460522	346
1	1772	202.647018460522	347
1	1790	204.715664850796	348
1	1790	204.715664850796	349
1	1790	204.715664850796	350
1	1806	206.268681464896	351
1	1806	206.268681464896	352
1	1806	206.268681464896	353
1	1822	207.717436725604	354
1	1822	207.717436725604	355
1	1822	207.717436725604	356
1	1838	208.890470827679	357
1	1838	208.890470827679	358
1	1838	208.890470827679	359
1	1854	210.04232873914	360
1	1854	210.04232873914	361
1	1854	210.04232873914	362
1	1870	211.446025123036	363
1	1870	211.446025123036	364
1	1870	211.446025123036	365
1	1886	212.619779383714	366
1	1886	212.619779383714	367
1	1886	212.619779383714	368
1	1895	214.127465807149	369
1	1895	214.127465807149	370
1	1895	214.127465807149	371
1	1913	216.925587247624	372
1	1913	216.925587247624	373
1	1913	216.925587247624	374
1	1929	218.490672154859	375
1	1929	218.490672154859	376
1	1929	218.490672154859	377
1	1945	219.670821340921	378
1	1945	219.670821340921	379
1	1945	219.670821340921	380
1	1954	220.81800984589	381
1	1954	220.81800984589	382
1	1954	220.81800984589	383
1	1970	222.315504405703	384
1	1970	222.315504405703	385
1	1970	222.315504405703	386
1	1986	223.415597803626	387
1	1986	223.415597803626	388
1	1986	223.415597803626	389
1	2004	226.225947770378	390
1	2004	226.225947770378	391
1	2004	226.225947770378	392
1	2020	227.791998467382	393
1	2020	227.791998467382	394
1	2020	227.791998467382	395
1	2036	229.152357282432	396
1	2036	229.152357282432	397
1	2036	229.152357282432	398
1	2052	230.697340004578	399
1	2052	230.697340004578	400
1	2052	230.697340004578	401
1	2068	232.018911279587	402
1	2068	232.018911279587	403
1	2068	232.018911279587	404
1	2088	236.277446372457	405
1	2088	236.277446372457	406
1	2088	236.277446372457	407
1	2104	238.007068388211	408
1	2104	238.007068388211	409
1	2104	238.007068388211	410
2	9	1.331444330932	0
2	9	1.331444330932	1
2	26	3.253718717114	2
2	26	3.253718717114	3
2	41	4.86482266332	4
2	41	4.86482266332	5
2	58	6.276320865775	6
2	58	6.276320865775	7
2	73	7.854826332645	8
2	73	7.854826332645	9
2	89	9.683946934456	10
2	89	9.683946934456	11
2	109	10.881487924776	12
2	109	10.881487924776	13
2	121	12.681376155864	14
2	121	12.681376155864	15
2	137	14.552310782711	16
2	137	14.552310782711	17
2	153	15.894159622606	18
2	153	15.894159622606	19
2	169	17.26129961807	20
2	169	17.26129961807	21
2	185	18.655808435131	22
2	185	18.655808435131	23
2	206	21.834965682124	24
2	206	21.834965682124	25
2	219	23.331803332817	26
2	219	23.331803332817	27
2	236	24.550231006001	28
2	236	24.550231006001	29
2	255	28.971455076294	30
2	255	28.971455076294	31
2	264	30.828924545571	32
2	264	30.828924545571	33
2	289	34.052226890253	34
2	289	34.052226890253	35
2	298	35.045542925567	36
2	298	35.045542925567	37
2	314	36.849633536586	38
2	314	36.849633536586	39
2	328	37.905726905387	40
2	328	37.905726905387	41
2	343	39.180557228232	42
2	343	39.180557228232	43
2	359	40.65569842552	44
2	359	40.65569842552	45
2	375	42.028160716808	46
2	375	42.028160716808	47
2	391	43.98150892987	48
2	391	43.98150892987	49
2	408	45.852161543294	50
2	408	45.852161543294	51
2	423	47.2081578198	52
2	423	47.2081578198	53
2	439	48.866348274414	54
2	439	48.866348274414	55
2	457	52.042699939633	56
2	457	52.042699939633	57
2	473	53.862905876814	58
2	473	53.862905876814	59
2	489	58.715862064731	60
2	489	58.715862064731	61
2	508	61.885148335236	62
2	508	61.885148335236	63
2	526	64.970610122473	64
2	526	64.970610122473	65
2	535	66.16571807551	66
2	535	66.16571807551	67
2	551	67.517984798306	68
2	551	67.517984798306	69
2	567	68.721765950259	70
2	567	68.721765950259	71
2	587	73.257659448907	72
2	587	73.257659448907	73
2	613	78.741119782849	74
2	613	78.741119782849	75
2	625	80.346473639813	76
2	625	80.346473639813	77
2	639	81.600018690882	78
2	639	81.600018690882	79
2	655	82.908735422565	80
2	655	82.908735422565	81
2	676	85.356799621451	82
2	676	85.356799621451	83
2	692	87.309936171935	84
2	692	87.309936171935	85
2	709	88.429651652249	86
2	709	88.429651652249	87
2	725	89.74165085708	88
2	725	89.74165085708	89
2	740	90.868690146749	90
2	740	90.868690146749	91
2	758	93.851377467789	92
2	758	93.851377467789	93
2	781	94.941107014654	94
2	781	94.941107014654	95
2	791	96.007020067551	96
2	791	96.007020067551	97
2	807	97.590687904666	98
2	807	97.590687904666	99
2	822	98.812731297151	100
2	822	98.812731297151	101
2	838	100.352030812161	102
2	838	100.352030812161	103
2	855	101.717040872619	104
2	855	101.717040872619	105
2	870	103.306730485704	106
2	870	103.306730485704	107
2	891	106.071125846777	108
2	891	106.071125846777	109
2	907	109.466102855042	110
2	907	109.466102855042	111
2	922	110.549470493665	112
2	922	110.549470493665	113
2	938	111.891888394325	114
2	938	111.891888394325	115
2	968	115.419784198697	116
2	968	115.419784198697	117
2	990	116.56918313947	118
2	990	116.56918313947	119
2	999	118.382654344089	120
2	999	118.382654344089	121
2	1015	119.8835452965	122
2	1015	119.8835452965	123
2	1031	121.540705495912	124
2	1031	121.540705495912	125
2	1054	123.115361280555	126
2	1054	123.115361280555	127
2	1072	125.829706869192	128
2	1072	125.829706869192	129
2	1081	127.59395511364	130
2	1081	127.59395511364	131
2	1097	128.640478514895	132
2	1097	128.640478514895	133
2	1114	130.19378749347	134
2	1114	130.19378749347	135
2	1136	131.630566713571	136
2	1136	131.630566713571	137
2	1146	133.341435915777	138
2	1146	133.341435915777	139
2	1164	135.223565081889	140
2	1164	135.223565081889	141
2	1178	136.362050327425	142
2	1178	136.362050327425	143
2	1193	137.992601634313	144
2	1193	137.992601634313	145
2	1209	139.70320111142	146
2	1209	139.70320111142	147
2	1225	140.890472607166	148
2	1225	140.890472607166	149
2	1244	142.210463380446	150
2	1244	142.210463380446	151
2	1253	143.923452213392	152
2	1253	143.923452213392	153
2	1276	145.777362291754	154
2	1276	145.777362291754	155
2	1285	146.896806700778	156
2	1285	146.896806700778	157
2	1308	148.788447363415	158
2	1308	148.788447363415	159
2	1326	153.277211101223	160
2	1326	153.277211101223	161
2	1341	154.364890365388	162
2	1341	154.364890365388	163
2	1357	156.243357561151	164
2	1357	156.243357561151	165
2	1374	158.163586760801	166
2	1374	158.163586760801	167
2	1396	159.655832532485	168
2	1396	159.655832532485	169
2	1407	162.317803372914	170
2	1407	162.317803372914	171
2	1430	163.758038544689	172
2	1430	163.758038544689	173
2	1439	165.592223607969	174
2	1439	165.592223607969	175
2	1448	166.833100340115	176
2	1448	166.833100340115	177
2	1464	168.464517344182	178
2	1464	168.464517344182	179
2	1482	170.717018346678	180
2	1482	170.717018346678	181
2	1498	172.075226911824	182
2	1498	172.075226911824	183
2	1516	175.35675785903	184
2	1516	175.35675785903	185
2	1539	176.537942962504	186
2	1539	176.537942962504	187
2	1549	177.55023640622	188
2	1549	177.55023640622	189
2	1571	178.955899193645	190
2	1571	178.955899193645	191
2	1583	181.579106283888	192
2	1583	181.579106283888	193
2	1599	182.826093179246	194
2	1599	182.826093179246	195
2	1614	184.549191232442	196
2	1614	184.549191232442	197
2	1646	187.917701429805	198
2	1646	187.917701429805	199
2	1656	189.474894853616	200
2	1656	189.474894853616	201
2	1671	190.72608841729	202
2	1671	190.72608841729	203
2	1687	192.06139451285	204
2	1687	192.06139451285	205
2	1696	193.854248820637	206
2	1696	193.854248820637	207
2	1705	194.878577935616	208
2	1705	194.878577935616	209
2	1715	196.25642679969	210
2	1715	196.25642679969	211
2	1731	198.80256659234	212
2	1731	198.80256659234	213
2	1751	200.38435952921	214
2	1751	200.38435952921	215
2	1761	201.608524967211	216
2	1761	201.608524967211	217
2	1776	202.661676097373	218
2	1776	202.661676097373	219
2	1794	204.732330034147	220
2	1794	204.732330034147	221
2	1817	206.321060399521	222
2	1817	206.321060399521	223
2	1826	207.727710601096	224
2	1826	207.727710601096	225
2	1849	208.956616255879	226
2	1849	208.956616255879	227
2	1858	210.06065620117	228
2	1858	210.06065620117	229
2	1874	211.480744055192	230
2	1874	211.480744055192	231
2	1890	212.634864741364	232
2	1890	212.634864741364	233
2	1900	214.148517335422	234
2	1900	214.148517335422	235
2	1917	216.941286769069	236
2	1917	216.941286769069	237
2	1937	218.545389358655	238
2	1937	218.545389358655	239
2	1949	219.683021305122	240
2	1949	219.683021305122	241
2	1959	220.830252111637	242
2	1959	220.830252111637	243
2	1974	222.331109885316	244
2	1974	222.331109885316	245
2	1990	223.42839584413	246
2	1990	223.42839584413	247
2	2008	226.243325898593	248
2	2008	226.243325898593	249
2	2025	227.80805770049	250
2	2025	227.80805770049	251
2	2040	229.171885253585	252
2	2040	229.171885253585	253
2	2057	230.715812422719	254
2	2057	230.715812422719	255
2	2072	232.034121125189	256
2	2072	232.034121125189	257
2	2093	236.299296612039	258
2	2093	236.299296612039	259
2	2108	238.023765337416	260
2	2108	238.023765337416	261
3	10	1.332888171871	0
3	10	1.332888171871	1
3	25	3.247957330242	2
3	25	3.247957330242	3
3	42	4.871184459035	4
3	42	4.871184459035	5
3	57	6.274504248875	6
3	57	6.274504248875	7
3	74	7.86193243456	8
3	74	7.86193243456	9
3	90	9.686742210764	10
3	90	9.686742210764	11
3	105	10.867022328705	12
3	105	10.867022328705	13
3	122	12.688275022088	14
3	122	12.688275022088	15
3	141	14.587324462594	16
3	141	14.587324462594	17
3	160	15.933263821849	18
3	160	15.933263821849	19
3	170	17.262812911607	20
3	170	17.262812911607	21
3	186	18.658502614561	22
3	186	18.658502614561	23
3	203	21.816084639647	24
3	203	21.816084639647	25
3	220	23.332991207659	26
3	220	23.332991207659	27
3	235	24.543228804423	28
3	235	24.543228804423	29
3	265	30.836739622958	30
3	265	30.836739622958	31
3	282	34.000577920677	32
3	282	34.000577920677	33
3	299	35.053252312933	34
3	299	35.053252312933	35
3	327	37.899606086932	36
3	327	37.899606086932	37
3	344	39.187583525714	38
3	344	39.187583525714	39
3	363	40.683072669839	40
3	363	40.683072669839	41
3	378	42.040654783239	42
3	378	42.040654783239	43
3	398	44.034809831608	44
3	398	44.034809831608	45
3	407	45.846798252512	46
3	407	45.846798252512	47
3	427	47.223678392561	48
3	427	47.223678392561	49
3	446	48.901770951985	50
3	446	48.901770951985	51
3	458	52.051236044461	52
3	458	52.051236044461	53
3	486	58.70421297022	54
3	486	58.70421297022	55
3	523	64.958946141746	56
3	523	64.958946141746	57
3	542	66.193132726701	58
3	542	66.193132726701	59
3	558	67.635843000053	60
3	558	67.635843000053	61
3	584	73.247372521937	62
3	584	73.247372521937	63
3	604	76.850487516821	64
3	604	76.850487516821	65
3	622	80.327776085758	66
3	622	80.327776085758	67
3	638	81.590287394455	68
3	638	81.590287394455	69
3	654	82.899459285223	70
3	654	82.899459285223	71
3	680	85.377994073891	72
3	680	85.377994073891	73
3	693	87.312025893759	74
3	693	87.312025893759	75
3	708	88.42913760528	76
3	708	88.42913760528	77
3	724	89.736946670424	78
3	724	89.736946670424	79
3	741	90.870270686676	80
3	741	90.870270686676	81
3	759	93.854994295955	82
3	759	93.854994295955	83
3	774	94.909879868405	84
3	774	94.909879868405	85
3	790	96.006015394797	86
3	790	96.006015394797	87
3	806	97.588743026676	88
3	806	97.588743026676	89
3	829	98.842432092007	90
3	829	98.842432092007	91
3	839	100.361290728931	92
3	839	100.361290728931	93
3	854	101.711193608738	94
3	854	101.711193608738	95
3	871	103.306742563593	96
3	871	103.306742563593	97
3	888	106.052810584427	98
3	888	106.052810584427	99
3	906	109.461441525577	100
3	906	109.461441525577	101
3	923	110.554013229371	102
3	923	110.554013229371	103
3	945	111.91659426957	104
3	945	111.91659426957	105
3	954	113.869643343143	106
3	954	113.869643343143	107
3	967	115.413176841576	108
3	967	115.413176841576	109
3	983	116.537395465759	110
3	983	116.537395465759	111
3	1006	118.408447029343	112
3	1006	118.408447029343	113
3	1018	119.896541704338	114
3	1018	119.896541704338	115
3	1034	121.553910136033	116
3	1034	121.553910136033	117
3	1047	123.086114715187	118
3	1047	123.086114715187	119
3	1065	125.808467679958	120
3	1065	125.808467679958	121
3	1082	127.598984503188	122
3	1082	127.598984503188	123
3	1104	128.667526769849	124
3	1104	128.667526769849	125
3	1113	130.190384587324	126
3	1113	130.190384587324	127
3	1129	131.605930380893	128
3	1129	131.605930380893	129
3	1145	133.34112320103	130
3	1145	133.34112320103	131
3	1161	135.209934323578	132
3	1161	135.209934323578	133
3	1177	136.361937409694	134
3	1177	136.361937409694	135
3	1194	137.99922174277	136
3	1194	137.99922174277	137
3	1210	139.703942620507	138
3	1210	139.703942620507	139
3	1228	140.932131342845	140
3	1228	140.932131342845	141
3	1237	142.173134568634	142
3	1237	142.173134568634	143
3	1260	143.966109757635	144
3	1260	143.966109757635	145
3	1269	145.747835032407	146
3	1269	145.747835032407	147
3	1288	146.907804912514	148
3	1288	146.907804912514	149
3	1301	148.760028087357	150
3	1301	148.760028087357	151
3	1325	153.274058999721	152
3	1325	153.274058999721	153
3	1345	154.381430537205	154
3	1345	154.381430537205	155
3	1364	156.269192729907	156
3	1364	156.269192729907	157
3	1373	158.161480317212	158
3	1373	158.161480317212	159
3	1389	159.615011302769	160
3	1389	159.615011302769	161
3	1408	162.31886283531	162
3	1408	162.31886283531	163
3	1423	163.733621760399	164
3	1423	163.733621760399	165
3	1449	166.840611262608	166
3	1449	166.840611262608	167
3	1471	168.522919143692	168
3	1471	168.522919143692	169
3	1485	170.757116262654	170
3	1485	170.757116262654	171
3	1499	172.075446799373	172
3	1499	172.075446799373	173
3	1517	175.35886170367	174
3	1517	175.35886170367	175
3	1532	176.481581630927	176
3	1532	176.481581630927	177
3	1548	177.543970157272	178
3	1548	177.543970157272	179
3	1564	178.920463389539	180
3	1564	178.920463389539	181
3	1582	181.57026646738	182
3	1582	181.57026646738	183
3	1598	182.821596253735	184
3	1598	182.821596253735	185
3	1615	184.554985859098	186
3	1615	184.554985859098	187
3	1630	186.194595720075	188
3	1630	186.194595720075	189
3	1639	187.888333925507	190
3	1639	187.888333925507	191
3	1655	189.474149023053	192
3	1655	189.474149023053	193
3	1672	190.73094801913	194
3	1672	190.73094801913	195
3	1714	196.254644601296	196
3	1714	196.254644601296	197
3	1728	198.787674224706	198
3	1728	198.787674224706	199
3	1744	200.354229234455	200
3	1744	200.354229234455	201
3	1760	201.604737912821	202
3	1760	201.604737912821	203
3	1783	202.698336487732	204
3	1783	202.698336487732	205
3	1797	204.744063861001	206
3	1797	204.744063861001	207
3	1810	206.284030357685	208
3	1810	206.284030357685	209
3	1829	207.741421426946	210
3	1829	207.741421426946	211
3	1842	208.90942604037	212
3	1842	208.90942604037	213
3	1859	210.061913816389	214
3	1859	210.061913816389	215
3	1881	211.516988374478	216
3	1881	211.516988374478	217
3	1899	214.142583449187	218
3	1899	214.142583449187	219
3	1924	216.972507155182	220
3	1924	216.972507155182	221
3	1933	218.531742172991	222
3	1933	218.531742172991	223
3	1958	220.828367878442	224
3	1958	220.828367878442	225
3	1981	222.372235057773	226
3	1981	222.372235057773	227
3	1993	223.4427238073	228
3	1993	223.4427238073	229
3	2009	226.249839984585	230
3	2009	226.249839984585	231
3	2024	227.802668439852	232
3	2024	227.802668439852	233
3	2047	229.202718404167	234
3	2047	229.202718404167	235
3	2056	230.711537976959	236
3	2056	230.711537976959	237
3	2073	232.034872393816	238
3	2073	232.034872393816	239
3	2092	236.289536124524	240
3	2092	236.289536124524	241
3	2109	238.028676299795	242
3	2109	238.028676299795	243
4	15	1.353446220298	0
4	15	1.353446220298	1
4	15	1.353446220298	2
4	31	3.266709492414	3
4	31	3.266709492414	4
4	31	3.266709492414	5
4	45	4.876057832631	6
4	45	4.876057832631	7
4	45	4.876057832631	8
4	63	6.289084546805	9
4	63	6.289084546805	10
4	63	6.289084546805	11
4	79	7.891056871384	12
4	79	7.891056871384	13
4	79	7.891056871384	14
4	95	9.69831146829	15
4	95	9.69831146829	16
4	95	9.69831146829	17
4	108	10.879519747345	18
4	108	10.879519747345	19
4	108	10.879519747345	20
4	125	12.697935089005	21
4	125	12.697935089005	22
4	125	12.697935089005	23
4	140	14.583893171564	24
4	140	14.583893171564	25
4	140	14.583893171564	26
4	156	15.920125083484	27
4	156	15.920125083484	28
4	156	15.920125083484	29
4	175	17.276605590077	30
4	175	17.276605590077	31
4	175	17.276605590077	32
4	189	18.668414111458	33
4	189	18.668414111458	34
4	189	18.668414111458	35
4	207	21.835222078738	36
4	207	21.835222078738	37
4	207	21.835222078738	38
4	225	23.368273810602	39
4	225	23.368273810602	40
4	225	23.368273810602	41
4	239	24.557104838991	42
4	239	24.557104838991	43
4	239	24.557104838991	44
4	268	30.845299964842	45
4	268	30.845299964842	46
4	268	30.845299964842	47
4	285	34.028688423214	48
4	285	34.028688423214	49
4	285	34.028688423214	50
4	304	35.067670517219	51
4	304	35.067670517219	52
4	304	35.067670517219	53
4	317	36.865612392463	54
4	317	36.865612392463	55
4	317	36.865612392463	56
4	331	37.915324604836	57
4	331	37.915324604836	58
4	331	37.915324604836	59
4	349	39.199000218534	60
4	349	39.199000218534	61
4	349	39.199000218534	62
4	362	40.677003782422	63
4	362	40.677003782422	64
4	362	40.677003782422	65
4	381	42.058413503935	66
4	381	42.058413503935	67
4	381	42.058413503935	68
4	394	43.999955009548	69
4	394	43.999955009548	70
4	394	43.999955009548	71
4	413	45.864545786861	72
4	413	45.864545786861	73
4	413	45.864545786861	74
4	426	47.218868475556	75
4	426	47.218868475556	76
4	426	47.218868475556	77
4	442	48.878652394413	78
4	442	48.878652394413	79
4	442	48.878652394413	80
4	463	52.096365296529	81
4	463	52.096365296529	82
4	463	52.096365296529	83
4	492	58.72600249602	84
4	492	58.72600249602	85
4	492	58.72600249602	86
4	511	61.908416721662	87
4	511	61.908416721662	88
4	511	61.908416721662	89
4	538	66.182213902955	90
4	538	66.182213902955	91
4	538	66.182213902955	92
4	554	67.572958809689	93
4	554	67.572958809689	94
4	554	67.572958809689	95
4	570	68.742008570121	96
4	570	68.742008570121	97
4	570	68.742008570121	98
4	588	73.264092276725	99
4	588	73.264092276725	100
4	588	73.264092276725	101
4	626	80.348805281308	102
4	626	80.348805281308	103
4	626	80.348805281308	104
4	642	81.603131613396	105
4	642	81.603131613396	106
4	642	81.603131613396	107
4	658	82.913690179757	108
4	658	82.913690179757	109
4	658	82.913690179757	110
4	679	85.370708271291	111
4	679	85.370708271291	112
4	679	85.370708271291	113
4	698	87.324819896583	114
4	698	87.324819896583	115
4	698	87.324819896583	116
4	712	88.439162460367	117
4	712	88.439162460367	118
4	712	88.439162460367	119
4	728	89.750604759657	120
4	728	89.750604759657	121
4	728	89.750604759657	122
4	746	90.90210820577	123
4	746	90.90210820577	124
4	746	90.90210820577	125
4	762	93.863865798587	126
4	762	93.863865798587	127
4	762	93.863865798587	128
4	777	94.927531521595	129
4	777	94.927531521595	130
4	777	94.927531521595	131
4	794	96.016204757916	132
4	794	96.016204757916	133
4	794	96.016204757916	134
4	812	97.605906135172	135
4	812	97.605906135172	136
4	812	97.605906135172	137
4	825	98.830438208359	138
4	825	98.830438208359	139
4	825	98.830438208359	140
4	844	100.386337130796	141
4	844	100.386337130796	142
4	844	100.386337130796	143
4	860	101.754282443991	144
4	860	101.754282443991	145
4	860	101.754282443991	146
4	876	103.324871634958	147
4	876	103.324871634958	148
4	876	103.324871634958	149
4	894	106.087588267927	150
4	894	106.087588267927	151
4	894	106.087588267927	152
4	912	109.477798225538	153
4	912	109.477798225538	154
4	912	109.477798225538	155
4	928	110.580613884443	156
4	928	110.580613884443	157
4	928	110.580613884443	158
4	941	111.902948518104	159
4	941	111.902948518104	160
4	941	111.902948518104	161
4	957	113.879885703435	162
4	957	113.879885703435	163
4	957	113.879885703435	164
4	971	115.423466069926	165
4	971	115.423466069926	166
4	971	115.423466069926	167
4	986	116.553367019961	168
4	986	116.553367019961	169
4	986	116.553367019961	170
4	1002	118.39493434841	171
4	1002	118.39493434841	172
4	1002	118.39493434841	173
4	1021	119.90788437564	174
4	1021	119.90788437564	175
4	1021	119.90788437564	176
4	1037	121.593786880332	177
4	1037	121.593786880332	178
4	1037	121.593786880332	179
4	1050	123.096775313046	180
4	1050	123.096775313046	181
4	1050	123.096775313046	182
4	1068	125.819551879404	183
4	1068	125.819551879404	184
4	1068	125.819551879404	185
4	1085	127.606307242308	186
4	1085	127.606307242308	187
4	1085	127.606307242308	188
4	1100	128.651951484539	189
4	1100	128.651951484539	190
4	1100	128.651951484539	191
4	1117	130.203520908655	192
4	1117	130.203520908655	193
4	1117	130.203520908655	194
4	1132	131.618563199178	195
4	1132	131.618563199178	196
4	1132	131.618563199178	197
4	1151	133.357075463565	198
4	1151	133.357075463565	199
4	1151	133.357075463565	200
4	1167	135.254333429284	201
4	1167	135.254333429284	202
4	1167	135.254333429284	203
4	1183	136.380871779509	204
4	1183	136.380871779509	205
4	1183	136.380871779509	206
4	1199	138.028401176957	207
4	1199	138.028401176957	208
4	1199	138.028401176957	209
4	1215	139.720340642403	210
4	1215	139.720340642403	211
4	1215	139.720340642403	212
4	1240	142.190680622458	213
4	1240	142.190680622458	214
4	1240	142.190680622458	215
4	1256	143.933843294684	216
4	1256	143.933843294684	217
4	1256	143.933843294684	218
4	1272	145.765475336341	219
4	1272	145.765475336341	220
4	1272	145.765475336341	221
4	1291	146.919174030638	222
4	1291	146.919174030638	223
4	1291	146.919174030638	224
4	1304	148.77587358971	225
4	1304	148.77587358971	226
4	1304	148.77587358971	227
4	1331	153.297245133513	228
4	1331	153.297245133513	229
4	1331	153.297245133513	230
4	1344	154.375209884156	231
4	1344	154.375209884156	232
4	1344	154.375209884156	233
4	1360	156.258878032052	234
4	1360	156.258878032052	235
4	1360	156.258878032052	236
4	1379	158.182280482648	237
4	1379	158.182280482648	238
4	1379	158.182280482648	239
4	1392	159.627019640303	240
4	1392	159.627019640303	241
4	1392	159.627019640303	242
4	1413	162.333381401617	243
4	1413	162.333381401617	244
4	1413	162.333381401617	245
4	1426	163.746090320349	246
4	1426	163.746090320349	247
4	1426	163.746090320349	248
4	1454	166.851376412774	249
4	1454	166.851376412774	250
4	1454	166.851376412774	251
4	1467	168.488789071389	252
4	1467	168.488789071389	253
4	1467	168.488789071389	254
4	1486	170.757347694199	255
4	1486	170.757347694199	256
4	1486	170.757347694199	257
4	1504	172.09088682466	258
4	1504	172.09088682466	259
4	1504	172.09088682466	260
4	1520	175.366930752693	261
4	1520	175.366930752693	262
4	1520	175.366930752693	263
4	1535	176.499583100986	264
4	1535	176.499583100986	265
4	1535	176.499583100986	266
4	1552	177.558563655232	267
4	1552	177.558563655232	268
4	1552	177.558563655232	269
4	1567	178.935255321527	270
4	1567	178.935255321527	271
4	1567	178.935255321527	272
4	1588	181.592543247421	273
4	1588	181.592543247421	274
4	1588	181.592543247421	275
4	1604	182.83695329729	276
4	1604	182.83695329729	277
4	1604	182.83695329729	278
4	1620	184.56749822241	279
4	1620	184.56749822241	280
4	1620	184.56749822241	281
4	1642	187.904194313127	282
4	1642	187.904194313127	283
4	1642	187.904194313127	284
4	1661	189.495785023497	285
4	1661	189.495785023497	286
4	1661	189.495785023497	287
4	1677	190.751557667921	288
4	1677	190.751557667921	289
4	1677	190.751557667921	290
4	1734	198.836828603233	291
4	1734	198.836828603233	292
4	1734	198.836828603233	293
4	1747	200.367946655559	294
4	1747	200.367946655559	295
4	1747	200.367946655559	296
4	1764	201.615856871593	297
4	1764	201.615856871593	298
4	1764	201.615856871593	299
4	1779	202.67422904363	300
4	1779	202.67422904363	301
4	1779	202.67422904363	302
4	1798	204.752501148045	303
4	1798	204.752501148045	304
4	1798	204.752501148045	305
4	1813	206.301542497168	306
4	1813	206.301542497168	307
4	1813	206.301542497168	308
4	1830	207.748604813577	309
4	1830	207.748604813577	310
4	1830	207.748604813577	311
4	1845	208.94473118946	312
4	1845	208.94473118946	313
4	1845	208.94473118946	314
4	1864	210.086890162898	315
4	1864	210.086890162898	316
4	1864	210.086890162898	317
4	1877	211.497029584547	318
4	1877	211.497029584547	319
4	1877	211.497029584547	320
4	1903	214.152726885305	321
4	1903	214.152726885305	322
4	1903	214.152726885305	323
4	1920	216.952692981695	324
4	1920	216.952692981695	325
4	1920	216.952692981695	326
4	1936	218.541746056652	327
4	1936	218.541746056652	328
4	1936	218.541746056652	329
4	1962	220.839142931713	330
4	1962	220.839142931713	331
4	1962	220.839142931713	332
4	1977	222.355522564163	333
4	1977	222.355522564163	334
4	1977	222.355522564163	335
4	1994	223.449802428376	336
4	1994	223.449802428376	337
4	1994	223.449802428376	338
4	2014	226.262035189922	339
4	2014	226.262035189922	340
4	2014	226.262035189922	341
4	2028	227.814236798334	342
4	2028	227.814236798334	343
4	2028	227.814236798334	344
4	2043	229.190244555726	345
4	2043	229.190244555726	346
4	2043	229.190244555726	347
4	2062	230.755032924053	348
4	2062	230.755032924053	349
4	2062	230.755032924053	350
4	2078	232.045431706107	351
4	2078	232.045431706107	352
4	2078	232.045431706107	353
4	2098	236.310643899483	354
4	2098	236.310643899483	355
4	2098	236.310643899483	356
4	2114	238.039803094406	357
4	2114	238.039803094406	358
4	2114	238.039803094406	359
5	18	1.363446220298	0
5	34	3.276709492414	1
5	50	4.886057832631	2
5	66	6.299084546805	3
5	82	7.901056871384	4
5	98	9.70831146829	5
5	112	10.889519747345	6
5	130	12.707935089005	7
5	144	14.593893171564	8
5	159	15.930125083484	9
5	194	18.678414111458	10
5	212	21.845222078738	11
5	228	23.378273810602	12
5	244	24.567104838991	13
5	273	30.855299964842	14
5	307	35.077670517219	15
5	320	36.875612392463	16
5	336	37.925324604836	17
5	352	39.209000218534	18
5	366	40.687003782422	19
5	384	42.068413503935	20
5	397	44.009955009548	21
5	416	45.874545786861	22
5	430	47.228868475556	23
5	445	48.888652394413	24
5	466	52.106365296529	25
5	495	58.73600249602	26
5	541	66.192213902955	27
5	557	67.582958809689	28
5	573	68.752008570121	29
5	593	73.274092276725	30
5	631	80.358805281308	31
5	647	81.613131613396	32
5	663	82.923690179757	33
5	683	85.380708271291	34
5	701	87.334819896583	35
5	717	88.449162460367	36
5	733	89.760604759657	37
5	749	90.91210820577	38
5	767	93.873865798587	39
5	780	94.937531521595	40
5	799	96.026204757916	41
5	847	100.396337130796	42
5	863	101.764282443991	43
5	879	103.334871634958	44
5	915	109.487798225538	45
5	931	110.590613884443	46
5	944	111.912948518104	47
5	960	113.889885703435	48
5	976	115.433466069926	49
5	989	116.563367019961	50
5	1005	118.40493434841	51
5	1040	121.603786880332	52
5	1071	125.829551879404	53
5	1090	127.616307242308	54
5	1122	130.213520908655	55
5	1135	131.628563199178	56
5	1154	133.367075463565	57
5	1170	135.264333429284	58
5	1186	136.390871779509	59
5	1218	139.730340642403	60
5	1259	143.943843294684	61
5	1275	145.775475336341	62
5	1294	146.929174030638	63
5	1334	153.307245133513	64
5	1348	154.385209884156	65
5	1363	156.268878032052	66
5	1382	158.192280482648	67
5	1416	162.343381401617	68
5	1429	163.756090320349	69
5	1470	168.498789071389	70
5	1491	170.767347694199	71
5	1507	172.10088682466	72
5	1525	175.376930752693	73
5	1538	176.509583100986	74
5	1557	177.568563655232	75
5	1570	178.945255321527	76
5	1591	181.602543247421	77
5	1607	182.84695329729	78
5	1623	184.57749822241	79
5	1664	189.505785023497	80
5	1680	190.761557667921	81
5	1750	200.377946655559	82
5	1769	201.625856871593	83
5	1782	202.68422904363	84
5	1803	204.762501148045	85
5	1816	206.311542497168	86
5	1835	207.758604813577	87
5	1867	210.096890162898	88
5	1880	211.507029584547	89
5	1908	214.162726885305	90
5	1923	216.962692981695	91
5	1940	218.551746056652	92
5	1967	220.849142931713	93
5	1980	222.365522564163	94
5	1999	223.459802428376	95
5	2017	226.272035189922	96
5	2033	227.824236798334	97
5	2046	229.200244555726	98
5	2065	230.765032924053	99
5	2081	232.055431706107	100
5	2101	236.320643899483	101
5	2117	238.049803094406	102

