version 2
run General-1-20231004-18:47:20-10338
attr configname General
attr datetime 20231004-18:47:20
attr experiment General
attr inifile omnetpp.ini
attr iterationvars ""
attr iterationvarsf ""
attr measurement ""
attr network Multihop
attr processid 10338
attr repetition 1
attr replication #1
attr resultdir results
attr runnumber 1
attr seedset 1
param Multihop.node[*].transmissionTime "uniform(1s, 2s)"
param Multihop.node[*].delayTime "uniform(0.01s, 0.2s)"
param Multihop.node[*].processingTime exponential(0.01s)
param Multihop.node[0].lossProbability 0
param Multihop.node[1].lossProbability 0.7
param Multihop.node[2].lossProbability 0.1
param Multihop.node[3].lossProbability 0.2
param Multihop.node[4].lossProbability 0.3
param Multihop.node[5].lossProbability 0.6

vector 0 Multihop.node[0] txVector ETV
vector 1 Multihop.node[1] txVector ETV
vector 2 Multihop.node[2] txVector ETV
vector 3 Multihop.node[3] txVector ETV
vector 4 Multihop.node[4] txVector ETV
vector 5 Multihop.node[5] rxVector ETV
0	1	0.089234179703	0
0	5	2.086418987836	1
0	7	3.214543435608	2
0	9	5.213583951003	3
0	11	6.449672927267	4
0	13	7.846253653408	5
0	15	9.234164393625	6
0	17	10.903910433992	7
0	19	12.839449506604	8
0	21	14.685760424823	9
0	23	15.999033937814	10
0	25	17.52358210052	11
0	29	18.967034994276	12
0	31	20.501448901487	13
0	33	22.415410923888	14
0	35	23.872615733068	15
0	37	25.303314303165	16
0	39	27.242442098098	17
0	49	29.020831333591	18
0	53	30.885851578905	19
0	55	32.715454943596	20
0	57	33.988504920971	21
0	61	35.047748118058	22
0	63	36.640813634848	23
0	73	38.31246772653	24
0	77	40.09578219906	25
0	85	41.129953509081	26
0	95	42.576088009752	27
0	97	44.479458181072	28
0	99	45.598948654836	29
0	101	47.123748037849	30
0	103	48.207371043159	31
0	105	50.124232377509	32
0	107	52.034680757324	33
0	109	53.3336108682	34
0	111	54.917999992033	35
0	113	56.483912020575	36
0	115	58.097850338908	37
0	117	60.054385997707	38
0	119	61.315364979094	39
0	121	62.546380400544	40
0	123	64.079828893419	41
0	125	66.029767027011	42
0	127	67.522826620497	43
0	129	69.063427128948	44
0	131	70.828912236148	45
0	133	71.874257961174	46
0	135	73.014224081419	47
0	143	74.806627660643	48
0	145	76.254607843587	49
0	151	78.146743712134	50
0	161	79.799042590314	51
0	163	81.489247179942	52
0	173	83.13699657575	53
0	181	85.018338404715	54
0	191	86.805289878629	55
0	197	88.568209945809	56
0	199	90.340949089153	57
0	201	91.493878911602	58
0	203	93.072512843533	59
0	213	94.081520839016	60
0	221	95.350521888704	61
0	223	96.822996930107	62
0	229	98.565761757204	63
0	239	99.796124561345	64
0	241	100.968402918316	65
0	243	102.364716206565	66
0	245	103.472081514894	67
0	247	104.981891793086	68
0	257	106.084027025503	69
0	259	107.317649553184	70
0	261	108.409205993524	71
0	267	109.979272651373	72
0	277	111.792267623012	73
0	283	113.544140592338	74
0	285	114.906045041866	75
0	287	116.059383525866	76
0	289	117.996573851797	77
0	291	119.912983724968	78
0	293	121.694942187638	79
0	299	123.31127113046	80
0	301	124.441040743262	81
0	309	125.735400215144	82
0	319	126.887537372418	83
0	321	128.628492929627	84
0	323	129.927173172477	85
0	325	131.131531296651	86
0	331	133.113287931661	87
0	333	134.764408497027	88
0	335	135.804091998962	89
0	337	137.617968360781	90
0	339	139.380541498428	91
0	341	140.835823968407	92
0	351	142.367650414706	93
0	353	144.284094117471	94
0	355	145.746246632311	95
0	357	146.878513906972	96
0	359	148.642755519488	97
0	361	149.855489214306	98
0	363	150.929747648427	99
0	367	152.025166892802	100
0	369	153.381630574708	101
0	379	154.476938386337	102
0	381	156.100230500923	103
0	383	157.424748001277	104
0	393	159.152759641531	105
0	395	160.579570485401	106
0	397	162.308127882081	107
0	407	164.064463272347	108
0	409	165.990813983493	109
0	411	167.285325530107	110
0	413	168.452277122653	111
0	415	169.47637874785	112
0	425	170.92838035443	113
0	427	172.282957588212	114
0	429	173.361477557692	115
0	431	175.054662755813	116
0	433	176.067375422112	117
0	439	177.526920702896	118
0	441	178.999004128511	119
0	443	180.104395378736	120
0	445	181.607471288537	121
0	455	183.493161149445	122
0	465	184.734650285804	123
0	467	186.311717918731	124
0	469	187.438244077034	125
0	471	189.388287384186	126
0	473	190.70189821453	127
0	475	192.654729338951	128
0	477	193.873122573953	129
0	487	195.121822773835	130
0	493	196.313083043911	131
0	495	197.32895602368	132
0	497	198.378667038755	133
0	501	199.778082330135	134
1	3	0.126198958082	0
1	27	17.536190259019	1
1	41	27.26502887021	2
1	51	29.048500845777	3
1	59	34.00960756128	4
1	65	36.656120311309	5
1	75	38.327787178075	6
1	79	40.115564657876	7
1	87	41.142465397636	8
1	137	73.024526625869	9
1	147	76.269349315128	10
1	153	78.161226306088	11
1	165	81.503615794887	12
1	175	83.147113953887	13
1	183	85.029000522071	14
1	193	86.830056227528	15
1	205	93.094858625007	16
1	215	94.109340470485	17
1	225	96.835128318713	18
1	231	98.582859555346	19
1	249	104.995298653767	20
1	263	108.424617579687	21
1	269	109.992694174776	22
1	279	111.807850510816	23
1	295	121.705308821628	24
1	303	124.455516352943	25
1	311	125.747163035812	26
1	327	131.163882543697	27
1	343	140.846981849393	28
1	365	150.941517472914	29
1	371	153.393176817707	30
1	385	157.442144869189	31
1	399	162.323196405308	32
1	417	169.502899005423	33
1	435	176.109899039136	34
1	447	181.625115085621	35
1	457	183.503402888869	36
1	479	193.903059014927	37
1	489	195.140710500739	38
1	499	198.397268599656	39
1	503	199.803507706815	40
2	43	27.291262083802	0
2	67	36.668321179756	1
2	81	40.136371469776	2
2	89	41.153227344067	3
2	139	73.055993169138	4
2	149	76.28708041576	5
2	155	78.179689489274	6
2	167	81.528022584742	7
2	177	83.164007678414	8
2	185	85.043390384684	9
2	195	86.843642431601	10
2	207	93.111219505708	11
2	217	94.127355033958	12
2	227	96.851370343289	13
2	233	98.595198672403	14
2	251	105.007935164712	15
2	265	108.439203758471	16
2	271	110.015331105698	17
2	281	111.823443361409	18
2	297	121.725931348609	19
2	305	124.468727295943	20
2	313	125.785084698664	21
2	329	131.188126610633	22
2	345	140.858560473667	23
2	373	153.42991517932	24
2	387	157.465493715492	25
2	401	162.359125793683	26
2	419	169.517493628928	27
2	437	176.123966476696	28
2	449	181.638420657988	29
2	459	183.547136806018	30
2	481	193.915741317533	31
2	491	195.151203840211	32
2	505	199.816447428248	33
3	45	27.302236016193	0
3	69	36.681740867921	1
3	83	40.14991674655	2
3	91	41.169561769646	3
3	141	73.07377560633	4
3	157	78.199846083801	5
3	169	81.542431410154	6
3	179	83.174774243008	7
3	187	85.081835434363	8
3	209	93.135683880942	9
3	219	94.138081617212	10
3	235	98.605704284298	11
3	253	105.052252119983	12
3	273	110.034823070312	13
3	307	124.479495771596	14
3	315	125.799723067815	15
3	347	140.875669283429	16
3	375	153.448509185781	17
3	389	157.477301815843	18
3	403	162.371401204718	19
3	421	169.536889401337	20
3	451	181.652799270712	21
3	461	183.562757431997	22
3	483	193.942620722037	23
3	507	199.827305784296	24
4	47	27.319537293244	0
4	71	36.693273779965	1
4	93	41.180572934533	2
4	159	78.211196436238	3
4	171	81.56640651443	4
4	189	85.096612620136	5
4	211	93.151983589661	6
4	237	98.623020293186	7
4	255	105.065513838462	8
4	275	110.050390192301	9
4	317	125.810236191124	10
4	349	140.888098286236	11
4	377	153.476812850677	12
4	391	157.498919199484	13
4	405	162.381481553761	14
4	423	169.547244095251	15
4	453	181.685459897868	16
4	463	183.577008323733	17
4	485	193.960471093409	18
4	509	199.839022639457	19
5	48	27.329537293244	0
5	72	36.703273779965	1
5	160	78.221196436238	2
5	276	110.060390192301	3
5	318	125.820236191124	4
5	350	140.898098286236	5
5	378	153.486812850677	6
5	406	162.391481553761	7
5	454	181.695459897868	8
5	464	183.587008323733	9
5	510	199.849022639457	10

