version 2
run General-2-20231004-18:47:20-10338
attr configname General
attr datetime 20231004-18:47:20
attr experiment General
attr inifile omnetpp.ini
attr iterationvars ""
attr iterationvarsf ""
attr measurement ""
attr network Multihop
attr processid 10338
attr repetition 2
attr replication #2
attr resultdir results
attr runnumber 2
attr seedset 2
param Multihop.node[*].transmissionTime "uniform(1s, 2s)"
param Multihop.node[*].delayTime "uniform(0.01s, 0.2s)"
param Multihop.node[*].processingTime exponential(0.01s)
param Multihop.node[0].lossProbability 0
param Multihop.node[1].lossProbability 0.7
param Multihop.node[2].lossProbability 0.1
param Multihop.node[3].lossProbability 0.2
param Multihop.node[4].lossProbability 0.3
param Multihop.node[5].lossProbability 0.6

vector 0 Multihop.node[0] txVector ETV
vector 1 Multihop.node[1] txVector ETV
vector 2 Multihop.node[2] txVector ETV
vector 3 Multihop.node[3] txVector ETV
vector 4 Multihop.node[4] txVector ETV
vector 5 Multihop.node[5] rxVector ETV
0	1	0.092839031499	0
0	3	1.277921112972	1
0	5	3.20946197656	2
0	7	5.157192587406	3
0	9	6.641941683619	4
0	11	7.962478119899	5
0	13	9.116904795422	6
0	15	10.815767484736	7
0	17	11.935718028592	8
0	19	13.420893943422	9
0	21	15.053631674052	10
0	23	16.871858396121	11
0	25	18.554884391158	12
0	27	20.053445558782	13
0	29	21.640242537736	14
0	39	23.359996768666	15
0	41	25.329629176316	16
0	43	26.626647536197	17
0	45	27.914516356095	18
0	47	29.030709678793	19
0	49	30.212436716092	20
0	51	31.70672648402	21
0	53	33.272491614354	22
0	55	34.494326781501	23
0	57	36.261817957993	24
0	59	37.83912602814	25
0	61	39.006949342574	26
0	63	40.374420711557	27
0	65	41.843094293979	28
0	67	43.497360476079	29
0	69	45.290450219084	30
0	71	46.953512014607	31
0	77	48.566541708326	32
0	87	49.71510648869	33
0	89	51.030403969828	34
0	91	52.289137140866	35
0	93	54.098312425911	36
0	103	55.451987799275	37
0	105	57.400078222639	38
0	111	59.222962857707	39
0	113	60.969594270707	40
0	115	62.401132040675	41
0	125	64.289435787144	42
0	127	65.770457542286	43
0	129	67.730771272228	44
0	131	69.156793799269	45
0	133	70.47966801633	46
0	135	72.241598015203	47
0	145	74.174226576014	48
0	147	75.747869074362	49
0	155	77.141802365676	50
0	163	78.497555989556	51
0	165	79.860881880874	52
0	167	81.364088797959	53
0	169	83.131577056617	54
0	171	85.046052628447	55
0	173	86.87242063416	56
0	175	88.284167074848	57
0	183	89.915009730978	58
0	193	91.562023956811	59
0	195	93.154520320024	60
0	197	94.940692565886	61
0	203	96.47283700669	62
0	213	97.949680412903	63
0	221	99.16548681028	64
0	231	101.06063254901	65
0	233	102.793455036606	66
0	235	104.689828912976	67
0	237	106.527659460918	68
0	239	108.064113158981	69
0	241	109.385431742544	70
0	243	110.782685734813	71
0	245	112.060124950034	72
0	247	113.996372993353	73
0	249	115.460115601325	74
0	251	117.312404561571	75
0	253	118.525171932548	76
0	255	119.525295516725	77
0	257	120.618191782634	78
0	259	121.793308171693	79
0	261	123.308167338853	80
0	263	125.188157690007	81
0	265	126.972949612902	82
0	267	128.502770788751	83
0	269	129.776608658272	84
0	271	130.802992804458	85
0	277	132.672701425634	86
0	279	134.178113060787	87
0	281	135.513207725033	88
0	283	136.674903157882	89
0	293	137.894193130795	90
0	295	139.180462382518	91
0	297	140.993244334141	92
0	301	142.539117037336	93
0	303	143.555227302498	94
0	305	145.490263030416	95
0	307	146.880848710443	96
0	309	148.791504227341	97
0	311	150.610969602846	98
0	313	151.701339980837	99
0	315	153.059580288611	100
0	317	154.078565416641	101
0	319	155.5285921388	102
0	327	156.558960390759	103
0	329	158.146134592143	104
0	339	160.138118841236	105
0	341	161.881980871332	106
0	343	163.636161823773	107
0	345	164.959845026273	108
0	347	166.695196420436	109
0	349	167.880786156531	110
0	359	169.012877914605	111
0	361	170.256044703552	112
0	363	171.936071957711	113
0	373	173.613211700709	114
0	377	175.349812238028	115
0	379	176.514679380476	116
0	387	178.342132730891	117
0	389	179.373937608224	118
0	391	180.441672847389	119
0	401	182.069854066024	120
0	403	183.451516643415	121
0	405	185.416297298173	122
0	407	187.196599168951	123
0	409	188.622573918678	124
0	411	189.968672067873	125
0	421	191.507854679381	126
0	429	192.851694574594	127
0	439	193.949242645191	128
0	449	195.023503453486	129
0	451	196.293681213415	130
0	453	198.159861455221	131
1	31	21.653233313036	0
1	73	47.010454211282	1
1	79	48.59566614515	2
1	95	54.114620583561	3
1	107	57.417317155422	4
1	117	62.439467036011	5
1	137	72.264018820924	6
1	149	75.783980135453	7
1	157	77.15419678776	8
1	177	88.298351235031	9
1	185	89.95667391012	10
1	199	94.985203978267	11
1	205	96.488303924759	12
1	215	97.976142009734	13
1	223	99.201957288065	14
1	273	130.816214682034	15
1	285	136.703013660419	16
1	299	141.003428724083	17
1	321	155.541744096321	18
1	331	158.161853110047	19
1	351	167.890886376115	20
1	365	171.96777239722	21
1	375	173.629665542259	22
1	381	176.532438101172	23
1	393	180.461749879083	24
1	413	189.984314576324	25
1	423	191.526429686686	26
1	431	192.864260235729	27
1	441	193.963185616219	28
2	33	21.67113446133	0
2	75	47.021726692156	1
2	81	48.612789972784	2
2	97	54.127825022899	3
2	109	57.429814574062	4
2	119	62.456458935021	5
2	139	72.281305129607	6
2	151	75.794035733937	7
2	159	77.168691387298	8
2	179	88.313158935848	9
2	187	89.982942402723	10
2	201	95.003759546196	11
2	207	96.50744136385	12
2	217	98.002147811744	13
2	225	99.249959148999	14
2	275	130.827783680752	15
2	287	136.725755754338	16
2	323	155.551769955472	17
2	333	158.17635398103	18
2	353	167.905555118304	19
2	367	171.979439623863	20
2	383	176.54681032836	21
2	395	180.486435209153	22
2	415	190.009576258249	23
2	425	191.54185813672	24
2	433	192.893995040559	25
2	443	193.987332745507	26
3	35	21.686365262582	0
3	83	48.62523964646	1
3	99	54.153829823881	2
3	121	62.47856696368	3
3	141	72.31288751846	4
3	153	75.817073610173	5
3	161	77.19975337381	6
3	181	88.355982305279	7
3	189	89.99554807905	8
3	209	96.51856826512	9
3	219	98.020234278153	10
3	227	99.284935265793	11
3	289	136.736284364724	12
3	325	155.567457079358	13
3	335	158.206999694765	14
3	355	167.915663715066	15
3	369	172.01875671088	16
3	385	176.575261784237	17
3	397	180.502258221792	18
3	417	190.030582215803	19
3	427	191.552568792476	20
3	435	192.90729203268	21
3	445	194.002595516806	22
4	37	21.698313066535	0
4	85	48.685245939548	1
4	101	54.180657354473	2
4	123	62.500827171254	3
4	143	72.330953675364	4
4	191	90.026684437063	5
4	211	96.533166541591	6
4	229	99.295343602771	7
4	291	136.756046691938	8
4	337	158.223636622608	9
4	357	167.944532903856	10
4	371	172.032234482124	11
4	399	180.531810540272	12
4	419	190.052378884149	13
4	437	192.918629844853	14
4	447	194.026721911822	15
5	124	62.510827171254	0
5	192	90.036684437063	1
5	230	99.305343602771	2
5	292	136.766046691938	3
5	358	167.954532903856	4
5	420	190.062378884149	5
5	438	192.928629844853	6

