version 2
run General-0-20231004-18:47:20-10338
attr configname General
attr datetime 20231004-18:47:20
attr experiment General
attr inifile omnetpp.ini
attr iterationvars ""
attr iterationvarsf ""
attr measurement ""
attr network Multihop
attr processid 10338
attr repetition 0
attr replication #0
attr resultdir results
attr runnumber 0
attr seedset 0
param Multihop.node[*].transmissionTime "uniform(1s, 2s)"
param Multihop.node[*].delayTime "uniform(0.01s, 0.2s)"
param Multihop.node[*].processingTime exponential(0.01s)
param Multihop.node[0].lossProbability 0
param Multihop.node[1].lossProbability 0.7
param Multihop.node[2].lossProbability 0.1
param Multihop.node[3].lossProbability 0.2
param Multihop.node[4].lossProbability 0.3
param Multihop.node[5].lossProbability 0.6

vector 0 Multihop.node[0] txVector ETV
vector 1 Multihop.node[1] txVector ETV
vector 2 Multihop.node[2] txVector ETV
vector 3 Multihop.node[3] txVector ETV
vector 4 Multihop.node[4] txVector ETV
vector 5 Multihop.node[5] rxVector ETV
0	1	0.114274565438	0
0	11	1.707119181827	1
0	13	3.09150089005	2
0	23	4.389035495305	3
0	25	5.869012666707	4
0	29	7.26179745987	5
0	31	8.599193621501	6
0	33	10.247365498058	7
0	43	11.61560703542	8
0	45	13.416517787919	9
0	53	14.936995268407	10
0	61	16.474368496638	11
0	69	17.660700841181	12
0	71	18.984841845304	13
0	73	20.134516709091	14
0	75	21.356838094609	15
0	85	22.743327072662	16
0	87	23.842607424202	17
0	89	25.812416492802	18
0	91	27.465556525	19
0	93	28.63646611113	20
0	95	29.99461828133	21
0	97	31.745304420198	22
0	99	33.353135086902	23
0	101	34.678182314456	24
0	103	35.716607739989	25
0	111	37.350881793144	26
0	113	39.34618135875	27
0	115	40.928031690958	28
0	117	42.34240027897	29
0	119	43.817097784094	30
0	121	45.440607890095	31
0	123	46.778615507604	32
0	125	48.453367829862	33
0	127	49.770569574627	34
0	129	51.548915056352	35
0	131	53.498486107754	36
0	135	55.161012975805	37
0	139	56.783859069067	38
0	149	58.755804068017	39
0	151	59.775791740352	40
0	153	61.217502661822	41
0	155	63.1970893923	42
0	157	64.556533861281	43
0	159	66.037427397519	44
0	161	67.726088583776	45
0	163	69.606564476927	46
0	165	71.524799949796	47
0	167	72.741622082963	48
0	169	74.306810948606	49
0	171	76.171913512591	50
0	173	77.68088247355	51
0	175	79.597605430129	52
0	177	81.518763042129	53
0	185	82.601875528767	54
0	191	84.249049667343	55
0	193	85.646870418991	56
0	195	87.199691903153	57
0	199	88.364632363738	58
0	201	89.511074127005	59
0	203	91.080692531382	60
0	213	92.784429812179	61
0	215	94.680468201478	62
0	217	96.319389281635	63
0	227	98.210943712461	64
0	237	99.977967415079	65
0	239	101.943383633699	66
0	249	103.531848717089	67
0	251	105.150657278094	68
0	253	106.625524799646	69
0	255	108.095656988052	70
0	257	109.81173152158	71
0	259	111.099722525412	72
0	261	112.48318475143	73
0	263	114.232354587484	74
0	265	116.110806778613	75
0	267	117.213670138577	76
0	269	118.306044025188	77
0	271	119.660090689622	78
0	273	121.211906944709	79
0	275	122.245532038463	80
0	277	124.214493804453	81
0	279	125.5354910482	82
0	289	126.756753730895	83
0	299	128.293776248191	84
0	301	130.134916378027	85
0	309	132.039564122288	86
0	319	133.818615140468	87
0	321	135.801190097192	88
0	323	137.174480849951	89
0	333	138.594556217622	90
0	335	140.359467915567	91
0	343	142.303591436316	92
0	345	143.64257655277	93
0	347	144.822066820768	94
0	357	145.993053413538	95
0	359	147.589708826348	96
0	361	149.373353074381	97
0	363	150.873379368178	98
0	365	151.923749426921	99
0	367	153.622847504524	100
0	377	155.615243900177	101
0	379	157.579733665875	102
0	381	159.133976101951	103
0	383	160.346366603934	104
0	385	161.568809827399	105
0	393	162.787559195264	106
0	395	164.468103889451	107
0	397	165.553399456507	108
0	399	166.609817791107	109
0	401	168.097655497101	110
0	403	169.978660055744	111
0	405	171.955064446042	112
0	407	173.572722365224	113
0	409	175.115221142146	114
0	411	176.969834725215	115
0	413	178.713669267558	116
0	415	180.192265593987	117
0	417	181.869347170303	118
0	427	183.476392231258	119
0	429	184.613612652133	120
0	439	185.842831975157	121
0	441	187.362543167389	122
0	449	188.362598517752	123
0	459	190.042477972648	124
0	461	191.922775577131	125
0	463	193.236467974569	126
0	465	195.193918830558	127
0	467	196.665670406382	128
0	469	198.377254227951	129
0	471	199.530948531424	130
1	3	0.142870607559	0
1	15	3.102084736741	1
1	27	5.89709635935	2
1	35	10.288867197345	3
1	47	13.437877177336	4
1	55	14.961208915208	5
1	63	16.497721398484	6
1	77	21.390127228351	7
1	105	35.75853720641	8
1	133	53.508622753538	9
1	137	55.182211119463	10
1	141	56.814912282075	11
1	179	81.532016446284	12
1	187	82.630288353482	13
1	197	87.214309212113	14
1	205	91.094095998764	15
1	219	96.34078536127	16
1	229	98.226250937427	17
1	241	101.96416198254	18
1	281	125.547013984453	19
1	291	126.772694465878	20
1	303	130.145299207156	21
1	311	132.069583987243	22
1	325	137.184999975473	23
1	337	140.383330829087	24
1	349	144.838292794208	25
1	369	153.635957182574	26
1	387	161.587239615153	27
1	419	181.891889203004	28
1	431	184.644948285008	29
1	443	187.376280800327	30
1	451	188.378688963879	31
2	5	0.172386060918	0
2	17	3.115268298149	1
2	37	10.300379505882	2
2	49	13.460629454358	3
2	57	14.972328376814	4
2	65	16.510161883391	5
2	79	21.406104689119	6
2	107	35.779115470544	7
2	143	56.832038118008	8
2	181	81.542110453791	9
2	189	82.64336353072	10
2	207	91.109775040299	11
2	221	96.356749155213	12
2	231	98.247503757595	13
2	243	101.981780660253	14
2	283	125.558037190602	15
2	293	126.783743284234	16
2	305	130.162398386428	17
2	313	132.084884016024	18
2	327	137.199549093921	19
2	339	140.397476954514	20
2	351	144.869053104812	21
2	371	153.657323147527	22
2	389	161.603256405018	23
2	421	181.908228503198	24
2	433	184.678426722622	25
2	445	187.391822508617	26
2	453	188.395293994676	27
3	7	0.20117570146	0
3	19	3.131762761632	1
3	39	10.330788428041	2
3	51	13.479352666308	3
3	59	14.988745323834	4
3	67	16.521614663664	5
3	81	21.425599634954	6
3	109	35.799195662998	7
3	145	56.842611387272	8
3	183	81.570583730301	9
3	209	91.133885284392	10
3	223	96.405179221045	11
3	233	98.260377862356	12
3	245	101.99440123267	13
3	285	125.609415288207	14
3	295	126.798086740793	15
3	307	130.174223772447	16
3	315	132.096391926126	17
3	329	137.209716771581	18
3	341	140.414201559682	19
3	353	144.907898547696	20
3	373	153.687294867202	21
3	391	161.648401191823	22
3	423	181.924316832335	23
3	435	184.698805223377	24
3	447	187.423480145426	25
3	455	188.420840624054	26
4	9	0.220945765724	0
4	21	3.158484873635	1
4	41	10.347205519768	2
4	83	21.458863145571	3
4	147	56.858610856138	4
4	211	91.148928722458	5
4	225	96.416414487519	6
4	235	98.27413525078	7
4	247	102.009424340653	8
4	287	125.622430947339	9
4	297	126.81442136697	10
4	317	132.106729793982	11
4	331	137.222340064673	12
4	355	144.927269934873	13
4	375	153.71119163784	14
4	425	181.958006014043	15
4	437	184.712730953659	16
4	457	188.433447025348	17
5	10	0.230945765724	0
5	42	10.357205519768	1
5	84	21.468863145571	2
5	148	56.868610856138	3
5	236	98.28413525078	4
5	288	125.632430947339	5
5	298	126.82442136697	6
5	356	144.937269934873	7
5	376	153.72119163784	8
5	438	184.722730953659	9
5	458	188.443447025348	10

