version 2
run General-3-20231004-18:47:20-10338
attr configname General
attr datetime 20231004-18:47:20
attr experiment General
attr inifile omnetpp.ini
attr iterationvars ""
attr iterationvarsf ""
attr measurement ""
attr network Multihop
attr processid 10338
attr repetition 3
attr replication #3
attr resultdir results
attr runnumber 3
attr seedset 3
param Multihop.node[*].transmissionTime "uniform(1s, 2s)"
param Multihop.node[*].delayTime "uniform(0.01s, 0.2s)"
param Multihop.node[*].processingTime exponential(0.01s)
param Multihop.node[0].lossProbability 0
param Multihop.node[1].lossProbability 0.7
param Multihop.node[2].lossProbability 0.1
param Multihop.node[3].lossProbability 0.2
param Multihop.node[4].lossProbability 0.3
param Multihop.node[5].lossProbability 0.6

vector 0 Multihop.node[0] txVector ETV
vector 1 Multihop.node[1] txVector ETV
vector 2 Multihop.node[2] txVector ETV
vector 3 Multihop.node[3] txVector ETV
vector 4 Multihop.node[4] txVector ETV
vector 5 Multihop.node[5] rxVector ETV
0	1	0.114651601831	0
0	11	1.185376482154	1
0	13	2.20412449243	2
0	15	3.244755229982	3
0	17	4.492643531714	4
0	19	5.586195027292	5
0	21	7.281018684454	6
0	23	8.426388831878	7
0	25	9.879561131423	8
0	27	11.095138143817	9
0	29	12.449043216718	10
0	31	13.941679137827	11
0	33	15.854980590589	12
0	35	17.620806965114	13
0	37	19.594455236172	14
0	39	20.996815878501	15
0	41	22.549587827012	16
0	43	23.855948454071	17
0	45	25.44256842609	18
0	47	26.717488533654	19
0	49	28.172096298611	20
0	59	29.929761544172	21
0	69	30.950376046192	22
0	71	32.375077656074	23
0	73	33.788796339719	24
0	75	35.575934840203	25
0	77	37.289500587922	26
0	79	38.312618156499	27
0	81	39.628385404893	28
0	83	41.191155501245	29
0	85	42.939312937972	30
0	87	44.548936602031	31
0	89	45.752291130903	32
0	97	47.405921983369	33
0	99	48.780046711512	34
0	101	49.855246825213	35
0	103	51.615825315541	36
0	105	52.679595117294	37
0	107	54.52063627711	38
0	109	56.213270024233	39
0	111	57.659170464915	40
0	121	59.021510923584	41
0	123	60.865298018861	42
0	125	62.354589274456	43
0	127	63.89470887587	44
0	129	65.720836950536	45
0	131	67.242441287334	46
0	133	68.385040633683	47
0	135	69.68730424724	48
0	145	71.494326922181	49
0	147	72.999900979991	50
0	149	74.917931002402	51
0	151	76.124897138053	52
0	153	78.050629922492	53
0	155	79.327952971519	54
0	157	80.504015086754	55
0	159	82.494316275301	56
0	161	84.186966891703	57
0	163	85.939106921735	58
0	165	87.05532351213	59
0	175	88.141324227512	60
0	185	89.566054178238	61
0	195	90.915979400113	62
0	197	92.797887847828	63
0	199	94.343270464637	64
0	201	96.171292581665	65
0	211	97.4049845909	66
0	213	98.874365903274	67
0	215	100.376896119513	68
0	225	101.549259018921	69
0	227	103.121496638818	70
0	229	104.463916225661	71
0	235	106.073561940412	72
0	237	108.073537404253	73
0	239	109.341485159076	74
0	241	110.598691537115	75
0	249	111.875333083864	76
0	251	113.021649306245	77
0	257	115.017092481093	78
0	259	116.50890802925	79
0	261	117.638566413266	80
0	269	119.498619876174	81
0	271	121.48991559709	82
0	273	122.647585352487	83
0	279	124.118251333782	84
0	287	125.815001321561	85
0	289	126.896572364099	86
0	299	128.204256092269	87
0	301	129.742719783984	88
0	303	131.392293042574	89
0	313	132.702254677262	90
0	315	134.32565829095	91
0	317	136.323470690824	92
0	319	137.483117849171	93
0	329	139.302659932827	94
0	335	140.541096230573	95
0	337	142.469595077052	96
0	345	143.83267135669	97
0	347	145.064132387354	98
0	349	146.507720066304	99
0	351	148.150795045145	100
0	359	149.93317902421	101
0	369	151.038838228745	102
0	373	152.448929563466	103
0	375	153.471025377813	104
0	383	154.693401697393	105
0	391	156.170333461672	106
0	393	157.973161431797	107
0	395	159.873932236875	108
0	401	161.235016011935	109
0	403	162.518705461709	110
0	405	163.731599797331	111
0	407	165.151866293116	112
0	409	166.277687332895	113
0	411	168.270610889955	114
0	413	169.704145181295	115
0	415	171.320850468077	116
0	417	173.299927722965	117
0	419	174.593282236787	118
0	421	176.047594017651	119
0	423	177.445730928866	120
0	425	179.234320065075	121
0	433	180.851774247199	122
0	435	182.083872636616	123
0	437	183.096628127921	124
0	439	184.371265597477	125
0	441	186.313179961008	126
0	443	187.589947877287	127
0	445	188.665736082078	128
0	455	189.940088247948	129
0	457	191.120828576919	130
0	459	192.864657988141	131
0	461	194.230139660251	132
0	463	196.006901694529	133
0	465	197.800224372719	134
0	475	199.434527842396	135
1	3	0.14297423212	0
1	51	28.199110225891	1
1	61	29.941301419948	2
1	91	45.773158549106	3
1	113	57.676429123775	4
1	137	69.70115344885	5
1	167	87.076278422008	6
1	177	88.168460037472	7
1	187	89.590870725734	8
1	203	96.18356005263	9
1	217	100.390440135581	10
1	231	104.475201577379	11
1	243	110.611591604981	12
1	253	113.036045666	13
1	263	117.651030508204	14
1	275	122.669875917229	15
1	281	124.142050788151	16
1	291	126.914804609942	17
1	305	131.420703827926	18
1	321	137.496720352329	19
1	331	139.32462215085	20
1	339	142.495692322944	21
1	353	148.176582302683	22
1	361	149.948959416084	23
1	371	151.050336886797	24
1	377	153.485437529064	25
1	385	154.71066430683	26
1	397	159.905479464184	27
1	427	179.253273335338	28
1	447	188.718441901194	29
1	467	197.824522286341	30
2	5	0.154267674735	0
2	53	28.21208869875	1
2	63	29.955236382816	2
2	93	45.803643564734	3
2	115	57.692541702645	4
2	139	69.711367991305	5
2	169	87.090276802077	6
2	179	88.186929660686	7
2	189	89.623552239502	8
2	205	96.225341287028	9
2	219	100.403570918399	10
2	233	104.485598533855	11
2	245	110.644393681368	12
2	255	113.053967184358	13
2	265	117.67842206802	14
2	277	122.684031161444	15
2	283	124.169035411892	16
2	293	126.950044463542	17
2	307	131.43756882029	18
2	323	137.507839971844	19
2	333	139.334880744476	20
2	341	142.518406127965	21
2	355	148.19137765372	22
2	363	149.978216712663	23
2	379	153.510704940845	24
2	387	154.725260567699	25
2	399	159.919134131778	26
2	429	179.264604327342	27
2	449	188.733934524209	28
2	469	197.844684857933	29
3	7	0.172691372567	0
3	55	28.244444049753	1
3	65	29.981787495184	2
3	95	45.830315705239	3
3	117	57.719063185835	4
3	141	69.727954401604	5
3	171	87.104765497318	6
3	181	88.21822528877	7
3	191	89.64895743887	8
3	207	96.249872158833	9
3	221	100.435365581787	10
3	247	110.672426718485	11
3	267	117.752094560287	12
3	285	124.197855883691	13
3	295	126.961041355753	14
3	309	131.459733988487	15
3	325	137.521212955419	16
3	343	142.537631493204	17
3	357	148.206618738203	18
3	365	150.023093802442	19
3	381	153.52667242938	20
3	389	154.738304474543	21
3	431	179.274918503352	22
3	451	188.757033767982	23
3	471	197.865330848783	24
4	9	0.188437229315	0
4	57	28.267117508476	1
4	67	29.996878948149	2
4	119	57.732865320162	3
4	143	69.738218111039	4
4	173	87.122233318927	5
4	183	88.244349889055	6
4	193	89.662289916486	7
4	209	96.261957797961	8
4	223	100.45236237226	9
4	297	126.976248414889	10
4	311	131.481093487135	11
4	327	137.54371677252	12
4	367	150.045828861864	13
4	453	188.776583809579	14
4	473	197.875335638085	15
5	10	0.198437229315	0
5	58	28.277117508476	1
5	144	69.748218111039	2
5	184	88.254349889055	3
5	312	131.491093487135	4
5	368	150.055828861864	5

