version 2
run General-4-20231004-18:47:20-10338
attr configname General
attr datetime 20231004-18:47:20
attr experiment General
attr inifile omnetpp.ini
attr iterationvars ""
attr iterationvarsf ""
attr measurement ""
attr network Multihop
attr processid 10338
attr repetition 4
attr replication #4
attr resultdir results
attr runnumber 4
attr seedset 4
param Multihop.node[*].transmissionTime "uniform(1s, 2s)"
param Multihop.node[*].delayTime "uniform(0.01s, 0.2s)"
param Multihop.node[*].processingTime exponential(0.01s)
param Multihop.node[0].lossProbability 0
param Multihop.node[1].lossProbability 0.7
param Multihop.node[2].lossProbability 0.1
param Multihop.node[3].lossProbability 0.2
param Multihop.node[4].lossProbability 0.3
param Multihop.node[5].lossProbability 0.6

vector 0 Multihop.node[0] txVector ETV
vector 1 Multihop.node[1] txVector ETV
vector 2 Multihop.node[2] txVector ETV
vector 3 Multihop.node[3] txVector ETV
vector 4 Multihop.node[4] txVector ETV
vector 5 Multihop.node[5] rxVector ETV
0	1	0.193735669288	0
0	3	2.094357123985	1
0	11	3.267052448974	2
0	15	4.408516621836	3
0	17	6.106936861216	4
0	19	8.010115387537	5
0	29	9.643078487054	6
0	31	11.034844682472	7
0	33	12.846792432632	8
0	35	14.459317775828	9
0	37	15.725791559008	10
0	47	17.369705822238	11
0	49	18.816055022798	12
0	51	20.257403556177	13
0	53	21.323113094935	14
0	55	22.498974329945	15
0	65	24.364857084969	16
0	67	25.625829163859	17
0	69	26.661587352086	18
0	71	27.890350022273	19
0	73	29.101530577907	20
0	75	30.282251172153	21
0	77	31.598367391074	22
0	79	32.839405996179	23
0	81	34.214774429951	24
0	83	35.847438408215	25
0	93	37.070470928833	26
0	95	38.42923730208	27
0	97	39.512406396833	28
0	99	40.76531600595	29
0	107	41.812721501026	30
0	109	42.938903161712	31
0	111	44.014609537009	32
0	121	45.70019774038	33
0	123	47.056570830211	34
0	125	48.961146922471	35
0	127	50.337566393116	36
0	135	52.184288664875	37
0	137	53.264267904838	38
0	139	54.308915733281	39
0	149	55.404113810664	40
0	151	57.348064483764	41
0	153	58.510936205663	42
0	155	60.102809851445	43
0	157	62.053164511375	44
0	161	63.419934180254	45
0	163	64.940608581683	46
0	165	66.247621253288	47
0	167	68.080769804462	48
0	169	70.010138404711	49
0	179	71.139073738518	50
0	181	73.076365218653	51
0	183	74.312516884801	52
0	185	75.793976828146	53
0	191	77.721385438617	54
0	193	79.689065067952	55
0	195	81.009680714847	56
0	197	82.895477807771	57
0	199	84.440854721859	58
0	201	85.811960904783	59
0	203	86.948886722949	60
0	205	88.061397058581	61
0	213	89.133680314216	62
0	223	91.070814819698	63
0	225	92.533144181984	64
0	227	93.678606509388	65
0	237	94.987401073956	66
0	247	96.077542796423	67
0	251	97.114404353238	68
0	253	98.776706788381	69
0	255	100.360250319978	70
0	257	102.087113343803	71
0	259	103.991489965627	72
0	261	105.008207627032	73
0	263	106.904899482075	74
0	265	108.408800465213	75
0	267	110.02361991412	76
0	273	111.158365560155	77
0	275	112.650153197739	78
0	277	114.581567465253	79
0	279	116.517461299356	80
0	281	118.017422753544	81
0	291	119.427058242652	82
0	293	121.325150020345	83
0	295	122.464331819833	84
0	301	124.193886408507	85
0	303	125.510162914329	86
0	309	127.264018364175	87
0	319	128.490999383543	88
0	321	130.488403371459	89
0	331	131.783035929937	90
0	337	133.379793817567	91
0	339	135.107522488961	92
0	341	136.797307782963	93
0	351	138.24892847535	94
0	353	139.562295101506	95
0	355	141.552412021595	96
0	357	143.436454408492	97
0	359	144.456396768258	98
0	361	145.559192008727	99
0	363	146.653272651291	100
0	365	147.919069977399	101
0	367	149.114017665075	102
0	377	150.508153998215	103
0	387	151.810521349	104
0	389	153.425883363854	105
0	399	154.621114521908	106
0	401	156.592817843115	107
0	403	157.63674035125	108
0	411	158.92198494488	109
0	413	160.677634233996	110
0	415	161.929132700121	111
0	417	163.792479822567	112
0	419	165.380114228852	113
0	421	167.088259102931	114
0	423	168.113660804383	115
0	431	169.250015993524	116
0	433	170.358007186712	117
0	435	171.448599547767	118
0	445	172.976113953083	119
0	455	174.616674872502	120
0	457	176.005725203469	121
0	459	177.117599519822	122
0	467	178.667874744781	123
0	469	180.196947127501	124
0	471	181.609988170829	125
0	473	182.672555076577	126
0	475	183.868579470007	127
0	477	185.322408708664	128
0	487	186.67213980636	129
0	489	187.962979659591	130
0	491	189.708807223629	131
0	501	191.660475815799	132
0	503	193.292766355131	133
0	509	194.827786521673	134
0	511	196.229485610187	135
0	513	198.027579653462	136
0	515	199.383201311495	137
1	5	2.123710255091	0
1	13	3.279594998362	1
1	21	8.020167112579	2
1	39	15.752454928141	3
1	57	22.527523119517	4
1	85	35.858932126765	5
1	101	40.801824199944	6
1	113	44.053998147748	7
1	129	50.360787995268	8
1	141	54.32136745601	9
1	159	62.063383069407	10
1	171	70.037924987334	11
1	187	75.805929777407	12
1	207	88.073544337679	13
1	215	89.15066488822	14
1	229	93.702598768824	15
1	239	94.999573989908	16
1	249	96.088424361282	17
1	269	110.040005899222	18
1	283	118.044074221674	19
1	297	122.482663831784	20
1	305	125.52343729319	21
1	311	127.288889311588	22
1	323	130.509432956206	23
1	333	131.796328091205	24
1	343	136.813932103209	25
1	369	149.139598105451	26
1	379	150.524456331841	27
1	391	153.44067718681	28
1	405	157.649893817899	29
1	425	168.131566328232	30
1	437	171.460885021193	31
1	447	172.987173673785	32
1	461	177.143301719649	33
1	479	185.334436237129	34
1	493	189.729677666169	35
1	505	193.306254033466	36
2	7	2.14310164276	0
2	23	8.038661766132	1
2	41	15.762647008542	2
2	59	22.563446233261	3
2	87	35.877535886106	4
2	103	40.814517924783	5
2	115	44.067791348933	6
2	131	50.382793815063	7
2	143	54.347818964273	8
2	173	70.063378035787	9
2	189	75.81759065681	10
2	209	88.083573646543	11
2	217	89.17442812312	12
2	231	93.726678419393	13
2	241	95.017817225429	14
2	271	110.060072690749	15
2	285	118.061326209116	16
2	299	122.514826780992	17
2	307	125.534710817697	18
2	313	127.314384913163	19
2	325	130.522501747963	20
2	335	131.820160761266	21
2	345	136.829127631901	22
2	371	149.150520470756	23
2	381	150.581194799104	24
2	393	153.480134640434	25
2	407	157.666108592334	26
2	427	168.144602305078	27
2	439	171.474350298074	28
2	449	173.002903716519	29
2	463	177.215540693146	30
2	481	185.364794382461	31
2	495	189.743539654955	32
2	507	193.324770390113	33
3	9	2.162203641094	0
3	25	8.053148044868	1
3	43	15.773052940854	2
3	61	22.593872044404	3
3	89	35.891869497884	4
3	105	40.841172978891	5
3	117	44.098688051771	6
3	133	50.40386560003	7
3	145	54.35887679729	8
3	175	70.085078391854	9
3	211	88.114512529027	10
3	219	89.191125771868	11
3	233	93.761629420708	12
3	243	95.027922039534	13
3	287	118.078053561163	14
3	315	127.334903872599	15
3	327	130.537989895321	16
3	347	136.869487014093	17
3	373	149.165266131226	18
3	383	150.604948281716	19
3	395	153.492818378202	20
3	409	157.681638832433	21
3	429	168.156641369977	22
3	441	171.510277949301	23
3	451	173.026263945676	24
3	465	177.243611934428	25
3	483	185.379139325222	26
3	497	189.760568799259	27
4	27	8.072414787844	0
4	45	15.81205786087	1
4	63	22.621905712594	2
4	91	35.908175924269	3
4	119	44.120666819495	4
4	147	54.36954088133	5
4	177	70.105589224168	6
4	221	89.201165057908	7
4	235	93.79846626852	8
4	245	95.040534348304	9
4	289	118.108485979758	10
4	317	127.348577138929	11
4	329	130.568951940209	12
4	349	136.879653223939	13
4	375	149.180236477114	14
4	385	150.615824583391	15
4	397	153.508023084982	16
4	443	171.522268235368	17
4	453	173.053872837942	18
4	485	185.390944498376	19
4	499	189.771519321591	20
5	46	15.82205786087	0
5	92	35.918175924269	1
5	120	44.130666819495	2
5	178	70.115589224168	3
5	246	95.050534348304	4
5	330	130.578951940209	5
5	376	149.190236477114	6
5	444	171.532268235368	7
5	454	173.063872837942	8

