version 2
run General-2-20231008-09:07:24-18645
attr configname General
attr datetime 20231008-09:07:24
attr experiment General
attr inifile omnetpp.ini
attr iterationvars ""
attr iterationvarsf ""
attr measurement ""
attr network Network3
attr processid 18645
attr repetition 2
attr replication #2
attr resultdir results
attr runnumber 2
attr seedset 2
param Network3.node[*].transmissionTime "uniform(1s, 2s)"
param Network3.node[*].delayTime "uniform(0.01s, 0.2s)"
param Network3.node[*].processingTime exponential(0.01s)
param Network3.node[0].lossProbability 0
param Network3.node[1].lossProbability 0.0
param Network3.node[2].lossProbability 0.0
param Network3.node[3].lossProbability "0.0 / 2"
param Network3.node[4].lossProbability "0.0 / 2"
param Network3.node[6].lossProbability "0.0 * 2"
param Network3.node[7].lossProbability "0.0 * 2"
param Network3.node[5].lossProbability "0.0 * 3"

vector 0 Network3.node[0] txVector ETV
vector 1 Network3.node[1] txVector ETV
vector 2 Network3.node[2] txVector ETV
vector 3 Network3.node[3] txVector ETV
vector 4 Network3.node[4] txVector ETV
vector 5 Network3.node[6] txVector ETV
vector 6 Network3.node[7] txVector ETV
vector 7 Network3.node[5] rxVector ETV
0	1	0.092839031499	0
0	1	0.092839031499	1
0	26	1.277921112972	2
0	26	1.277921112972	3
0	51	2.791499230797	4
0	51	2.791499230797	5
0	76	4.357264361131	6
0	76	4.357264361131	7
0	101	5.519562964347	8
0	101	5.519562964347	9
0	126	7.333701381246	10
0	126	7.333701381246	11
0	151	8.502926826962	12
0	151	8.502926826962	13
0	176	9.508471247992	14
0	176	9.508471247992	15
0	201	11.481381938812	16
0	201	11.481381938812	17
0	226	13.056335476479	18
0	226	13.056335476479	19
0	251	14.596526986473	20
0	251	14.596526986473	21
0	276	15.80929435745	22
0	276	15.80929435745	23
0	301	16.858162443872	24
0	301	16.858162443872	25
0	326	17.874272709034	26
0	326	17.874272709034	27
0	351	19.164699454812	28
0	351	19.164699454812	29
0	376	20.174671360777	30
0	376	20.174671360777	31
0	401	21.183119725689	32
0	401	21.183119725689	33
0	426	22.56478230308	34
0	426	22.56478230308	35
0	451	23.911412323846	36
0	451	23.911412323846	37
0	476	25.777592565652	38
0	476	25.777592565652	39
0	501	27.164492910748	40
0	501	27.164492910748	41
0	526	28.340137596961	42
0	526	28.340137596961	43
0	551	29.44188240871	44
0	551	29.44188240871	45
0	576	30.807360795812	46
0	576	30.807360795812	47
0	601	32.160574691623	48
0	601	32.160574691623	49
0	626	33.374817570459	50
0	626	33.374817570459	51
0	651	35.042916904922	52
0	651	35.042916904922	53
0	676	36.788455719614	54
0	676	36.788455719614	55
0	701	38.203123978359	56
0	701	38.203123978359	57
0	726	39.521649618886	58
0	726	39.521649618886	59
0	751	40.854409572921	60
0	751	40.854409572921	61
0	776	42.052409463815	62
0	776	42.052409463815	63
0	801	43.319035356884	64
0	801	43.319035356884	65
0	826	44.94383448667	66
0	826	44.94383448667	67
0	851	46.32870438953	68
0	851	46.32870438953	69
0	876	47.969352050937	70
0	876	47.969352050937	71
0	901	49.501020445043	72
0	901	49.501020445043	73
0	926	51.380255047252	74
0	926	51.380255047252	75
0	951	53.25954200213	76
0	951	53.25954200213	77
0	976	54.310595410663	78
0	976	54.310595410663	79
0	1001	55.902474480002	80
0	1001	55.902474480002	81
0	1026	57.609954570672	82
0	1026	57.609954570672	83
0	1051	59.42887011475	84
0	1051	59.42887011475	85
0	1076	60.586908727438	86
0	1076	60.586908727438	87
0	1101	61.829867819344	88
0	1101	61.829867819344	89
0	1126	63.065304541282	90
0	1126	63.065304541282	91
0	1151	64.342957609586	92
0	1151	64.342957609586	93
0	1176	65.892133742824	94
0	1176	65.892133742824	95
0	1201	67.348365779754	96
0	1201	67.348365779754	97
0	1226	68.594453633318	98
0	1226	68.594453633318	99
0	1251	70.057666596046	100
0	1251	70.057666596046	101
0	1276	71.558872627814	102
0	1276	71.558872627814	103
0	1301	73.00115768404	104
0	1301	73.00115768404	105
0	1326	74.026201335269	106
0	1326	74.026201335269	107
0	1351	75.638960255099	108
0	1351	75.638960255099	109
0	1376	77.537790359485	110
0	1376	77.537790359485	111
0	1401	78.82647871042	112
0	1401	78.82647871042	113
0	1426	80.236463039437	114
0	1426	80.236463039437	115
0	1451	81.455209849657	116
0	1451	81.455209849657	117
0	1476	82.528243203902	118
0	1476	82.528243203902	119
0	1501	83.854134055575	120
0	1501	83.854134055575	121
0	1526	85.178863946836	122
0	1526	85.178863946836	123
0	1551	86.254363656997	124
0	1551	86.254363656997	125
0	1576	87.482668612174	126
0	1576	87.482668612174	127
0	1601	88.74120105712	128
0	1601	88.74120105712	129
0	1626	89.981080897872	130
0	1626	89.981080897872	131
0	1651	91.728711735944	132
0	1651	91.728711735944	133
0	1676	92.867900344797	134
0	1676	92.867900344797	135
0	1701	94.588547665181	136
0	1701	94.588547665181	137
0	1726	96.132126509931	138
0	1726	96.132126509931	139
0	1751	97.508673246738	140
0	1751	97.508673246738	141
0	1776	99.063697022407	142
0	1776	99.063697022407	143
0	1801	100.737039942315	144
0	1801	100.737039942315	145
0	1826	102.663549640237	146
0	1826	102.663549640237	147
0	1851	104.5723784168	148
0	1851	104.5723784168	149
0	1876	106.229615234326	150
0	1876	106.229615234326	151
0	1901	107.724536446178	152
0	1901	107.724536446178	153
0	1926	109.401398299982	154
0	1926	109.401398299982	155
0	1951	110.779734981268	156
0	1951	110.779734981268	157
0	1976	111.85159131747	158
0	1976	111.85159131747	159
0	2001	113.387806856095	160
0	2001	113.387806856095	161
0	2026	114.55881228952	162
0	2026	114.55881228952	163
0	2051	115.930887660266	164
0	2051	115.930887660266	165
0	2076	117.264130525778	166
0	2076	117.264130525778	167
0	2101	119.096301445293	168
0	2101	119.096301445293	169
0	2126	120.618816009744	170
0	2126	120.618816009744	171
0	2151	121.637354508995	172
0	2151	121.637354508995	173
0	2176	123.260862694842	174
0	2176	123.260862694842	175
0	2201	124.402044752169	176
0	2201	124.402044752169	177
0	2226	126.209765241736	178
0	2226	126.209765241736	179
0	2251	127.292351076634	180
0	2251	127.292351076634	181
0	2276	129.077276439661	182
0	2276	129.077276439661	183
0	2301	130.984644706849	184
0	2301	130.984644706849	185
0	2326	132.726587983802	186
0	2326	132.726587983802	187
0	2351	134.249913156986	188
0	2351	134.249913156986	189
0	2376	136.092577170603	190
0	2376	136.092577170603	191
0	2401	138.069350434257	192
0	2401	138.069350434257	193
0	2426	139.930513578723	194
0	2426	139.930513578723	195
0	2451	141.605502757965	196
0	2451	141.605502757965	197
0	2476	143.3706335244	198
0	2476	143.3706335244	199
0	2501	144.719488199358	200
0	2501	144.719488199358	201
0	2526	146.092091661669	202
0	2526	146.092091661669	203
0	2551	148.076308100275	204
0	2551	148.076308100275	205
0	2576	149.31095689747	206
0	2576	149.31095689747	207
0	2601	150.562016204488	208
0	2601	150.562016204488	209
0	2626	152.353759789164	210
0	2626	152.353759789164	211
0	2651	153.905354638141	212
0	2651	153.905354638141	213
0	2676	155.405357316392	214
0	2676	155.405357316392	215
0	2701	156.934502017707	216
0	2701	156.934502017707	217
0	2726	158.303709125635	218
0	2726	158.303709125635	219
0	2751	159.77757829593	220
0	2751	159.77757829593	221
0	2776	161.189650398469	222
0	2776	161.189650398469	223
0	2801	162.432904538488	224
0	2801	162.432904538488	225
0	2826	163.717569452267	226
0	2826	163.717569452267	227
0	2851	165.548818952659	228
0	2851	165.548818952659	229
0	2876	167.474523407196	230
0	2876	167.474523407196	231
0	2901	168.667169751854	232
0	2901	168.667169751854	233
0	2926	169.97858550099	234
0	2926	169.97858550099	235
0	2951	171.029227576007	236
0	2951	171.029227576007	237
0	2976	172.706731910373	238
0	2976	172.706731910373	239
0	3001	174.161820380038	240
0	3001	174.161820380038	241
0	3026	175.228520359632	242
0	3026	175.228520359632	243
0	3051	177.039660231697	244
0	3051	177.039660231697	245
0	3076	178.05067815657	246
0	3076	178.05067815657	247
0	3101	179.892076231327	248
0	3101	179.892076231327	249
0	3126	181.099569520934	250
0	3126	181.099569520934	251
0	3151	182.688800767784	252
0	3151	182.688800767784	253
0	3176	184.578423885883	254
0	3176	184.578423885883	255
0	3201	185.708638334436	256
0	3201	185.708638334436	257
0	3226	187.544869232712	258
0	3226	187.544869232712	259
0	3251	189.079784508584	260
0	3251	189.079784508584	261
0	3276	190.788789826235	262
0	3276	190.788789826235	263
0	3301	192.615768462442	264
0	3301	192.615768462442	265
0	3326	194.356854305625	266
0	3326	194.356854305625	267
0	3351	195.75303016093	268
0	3351	195.75303016093	269
0	3376	197.070351614173	270
0	3376	197.070351614173	271
0	3401	198.074340549319	272
0	3401	198.074340549319	273
0	3426	199.89304208455	274
0	3426	199.89304208455	275
0	3451	201.730901015246	276
0	3451	201.730901015246	277
0	3476	203.303138382755	278
0	3476	203.303138382755	279
0	3501	204.77136149702	280
0	3501	204.77136149702	281
0	3526	206.068107519554	282
0	3526	206.068107519554	283
0	3551	207.760343993571	284
0	3551	207.760343993571	285
0	3576	209.471878701844	286
0	3576	209.471878701844	287
0	3601	211.432817618618	288
0	3601	211.432817618618	289
0	3626	212.496576200029	290
0	3626	212.496576200029	291
0	3651	213.602361196442	292
0	3651	213.602361196442	293
0	3676	215.169636091939	294
0	3676	215.169636091939	295
0	3701	217.03594954873	296
0	3701	217.03594954873	297
0	3726	218.796602883633	298
0	3726	218.796602883633	299
0	3751	220.332763420442	300
0	3751	220.332763420442	301
0	3776	222.288157688944	302
0	3776	222.288157688944	303
0	3801	224.074292586442	304
0	3801	224.074292586442	305
0	3826	225.733065881325	306
0	3826	225.733065881325	307
0	3851	227.295808856865	308
0	3851	227.295808856865	309
0	3876	228.893891850045	310
0	3876	228.893891850045	311
0	3901	229.932803420374	312
0	3901	229.932803420374	313
0	3926	230.94327572526	314
0	3926	230.94327572526	315
0	3951	232.330340259732	316
0	3951	232.330340259732	317
0	3976	233.457710790937	318
0	3976	233.457710790937	319
0	4001	234.928621209948	320
0	4001	234.928621209948	321
0	4026	236.450967555423	322
0	4026	236.450967555423	323
0	4051	238.261180099821	324
0	4051	238.261180099821	325
0	4076	239.274291743081	326
0	4076	239.274291743081	327
1	4	0.129654214104	0
1	4	0.129654214104	1
1	4	0.129654214104	2
1	29	1.289959914142	3
1	29	1.289959914142	4
1	29	1.289959914142	5
1	54	2.804007399895	6
1	54	2.804007399895	7
1	54	2.804007399895	8
1	79	4.37932919879	9
1	79	4.37932919879	10
1	79	4.37932919879	11
1	107	5.559145484196	12
1	107	5.559145484196	13
1	107	5.559145484196	14
1	129	7.347168955987	15
1	129	7.347168955987	16
1	129	7.347168955987	17
1	155	8.525964703198	18
1	155	8.525964703198	19
1	155	8.525964703198	20
1	179	9.519667828342	21
1	179	9.519667828342	22
1	179	9.519667828342	23
1	205	11.497860683264	24
1	205	11.497860683264	25
1	205	11.497860683264	26
1	229	13.07571169695	27
1	229	13.07571169695	28
1	229	13.07571169695	29
1	254	14.606528222391	30
1	254	14.606528222391	31
1	254	14.606528222391	32
1	279	15.821935552742	33
1	279	15.821935552742	34
1	279	15.821935552742	35
1	312	16.895501622077	36
1	312	16.895501622077	37
1	312	16.895501622077	38
1	329	17.893824442889	39
1	329	17.893824442889	40
1	329	17.893824442889	41
1	355	19.179368197001	42
1	355	19.179368197001	43
1	355	19.179368197001	44
1	379	20.184926604953	45
1	379	20.184926604953	46
1	379	20.184926604953	47
1	408	21.226581323355	48
1	408	21.226581323355	49
1	408	21.226581323355	50
1	429	22.577120588593	51
1	429	22.577120588593	52
1	429	22.577120588593	53
1	457	23.957908667476	54
1	457	23.957908667476	55
1	457	23.957908667476	56
1	482	25.806911037355	57
1	482	25.806911037355	58
1	482	25.806911037355	59
1	504	27.177436812388	60
1	504	27.177436812388	61
1	504	27.177436812388	62
1	529	28.352068580039	63
1	529	28.352068580039	64
1	529	28.352068580039	65
1	555	29.460776392404	66
1	555	29.460776392404	67
1	555	29.460776392404	68
1	579	30.819161380481	69
1	579	30.819161380481	70
1	579	30.819161380481	71
1	605	32.18195096993	72
1	605	32.18195096993	73
1	605	32.18195096993	74
1	630	33.391809359319	75
1	630	33.391809359319	76
1	630	33.391809359319	77
1	654	35.057462398111	78
1	654	35.057462398111	79
1	654	35.057462398111	80
1	679	36.801899481564	81
1	679	36.801899481564	82
1	679	36.801899481564	83
1	705	38.223664972089	84
1	705	38.223664972089	85
1	705	38.223664972089	86
1	729	39.535307708119	87
1	729	39.535307708119	88
1	729	39.535307708119	89
1	754	40.86666478045	90
1	754	40.86666478045	91
1	754	40.86666478045	92
1	782	42.078663910685	93
1	782	42.078663910685	94
1	782	42.078663910685	95
1	804	43.332188735299	96
1	804	43.332188735299	97
1	804	43.332188735299	98
1	829	44.957660254671	99
1	829	44.957660254671	100
1	829	44.957660254671	101
1	854	46.34971333147	102
1	854	46.34971333147	103
1	854	46.34971333147	104
1	879	47.97981005041	105
1	879	47.97981005041	106
1	879	47.97981005041	107
1	907	49.527624266587	108
1	907	49.527624266587	109
1	907	49.527624266587	110
1	929	51.39028845743	111
1	929	51.39028845743	112
1	929	51.39028845743	113
1	954	53.274301625968	114
1	954	53.274301625968	115
1	954	53.274301625968	116
1	979	54.332939427539	117
1	979	54.332939427539	118
1	979	54.332939427539	119
1	1004	55.916649775107	120
1	1004	55.916649775107	121
1	1004	55.916649775107	122
1	1029	57.620705312412	123
1	1029	57.620705312412	124
1	1029	57.620705312412	125
1	1055	59.447456082259	126
1	1055	59.447456082259	127
1	1055	59.447456082259	128
1	1086	60.627633034436	129
1	1086	60.627633034436	130
1	1086	60.627633034436	131
1	1107	61.868632627291	132
1	1107	61.868632627291	133
1	1107	61.868632627291	134
1	1129	63.076931235405	135
1	1129	63.076931235405	136
1	1129	63.076931235405	137
1	1155	64.359163719779	138
1	1155	64.359163719779	139
1	1155	64.359163719779	140
1	1180	65.908338987171	141
1	1180	65.908338987171	142
1	1180	65.908338987171	143
1	1204	67.360633421476	144
1	1204	67.360633421476	145
1	1204	67.360633421476	146
1	1229	68.605614566553	147
1	1229	68.605614566553	148
1	1229	68.605614566553	149
1	1255	70.072681152389	150
1	1255	70.072681152389	151
1	1255	70.072681152389	152
1	1279	71.572368497574	153
1	1279	71.572368497574	154
1	1279	71.572368497574	155
1	1305	73.025369225343	156
1	1305	73.025369225343	157
1	1305	73.025369225343	158
1	1329	74.039343131842	159
1	1329	74.039343131842	160
1	1329	74.039343131842	161
1	1354	75.649577669152	162
1	1354	75.649577669152	163
1	1354	75.649577669152	164
1	1379	77.555391865835	165
1	1379	77.555391865835	166
1	1379	77.555391865835	167
1	1408	78.858499829196	168
1	1408	78.858499829196	169
1	1408	78.858499829196	170
1	1432	80.259915893105	171
1	1432	80.259915893105	172
1	1432	80.259915893105	173
1	1458	81.489550939222	174
1	1458	81.489550939222	175
1	1458	81.489550939222	176
1	1480	82.543584744414	177
1	1480	82.543584744414	178
1	1480	82.543584744414	179
1	1505	83.876831239023	180
1	1505	83.876831239023	181
1	1505	83.876831239023	182
1	1536	85.217381875447	183
1	1536	85.217381875447	184
1	1536	85.217381875447	185
1	1555	86.284720246062	186
1	1555	86.284720246062	187
1	1555	86.284720246062	188
1	1580	87.498578800996	189
1	1580	87.498578800996	190
1	1580	87.498578800996	191
1	1605	88.75744106079	192
1	1605	88.75744106079	193
1	1605	88.75744106079	194
1	1630	89.996803418887	195
1	1630	89.996803418887	196
1	1630	89.996803418887	197
1	1655	91.76432406127	198
1	1655	91.76432406127	199
1	1655	91.76432406127	200
1	1679	92.881234766335	201
1	1679	92.881234766335	202
1	1679	92.881234766335	203
1	1704	94.599705743156	204
1	1704	94.599705743156	205
1	1704	94.599705743156	206
1	1730	96.160314146813	207
1	1730	96.160314146813	208
1	1730	96.160314146813	209
1	1755	97.523241926978	210
1	1755	97.523241926978	211
1	1755	97.523241926978	212
1	1779	99.074108486015	213
1	1779	99.074108486015	214
1	1779	99.074108486015	215
1	1805	100.751654506942	216
1	1805	100.751654506942	217
1	1805	100.751654506942	218
1	1832	102.696624769959	219
1	1832	102.696624769959	220
1	1832	102.696624769959	221
1	1855	104.585457521261	222
1	1855	104.585457521261	223
1	1855	104.585457521261	224
1	1883	106.26400281216	225
1	1883	106.26400281216	226
1	1883	106.26400281216	227
1	1904	107.734679882296	228
1	1904	107.734679882296	229
1	1904	107.734679882296	230
1	1929	109.41652739086	231
1	1929	109.41652739086	232
1	1929	109.41652739086	233
1	1954	110.794371002178	234
1	1954	110.794371002178	235
1	1954	110.794371002178	236
1	1979	111.866172324332	237
1	1979	111.866172324332	238
1	1979	111.866172324332	239
1	2004	113.406964496195	240
1	2004	113.406964496195	241
1	2004	113.406964496195	242
1	2029	114.570380648002	243
1	2029	114.570380648002	244
1	2029	114.570380648002	245
1	2062	115.97134409387	246
1	2062	115.97134409387	247
1	2062	115.97134409387	248
1	2079	117.274689838069	249
1	2079	117.274689838069	250
1	2079	117.274689838069	251
1	2105	119.11878427515	252
1	2105	119.11878427515	253
1	2105	119.11878427515	254
1	2130	120.637487512745	255
1	2130	120.637487512745	256
1	2130	120.637487512745	257
1	2154	121.64859831193	258
1	2154	121.64859831193	259
1	2154	121.64859831193	260
1	2180	123.278718222044	261
1	2180	123.278718222044	262
1	2180	123.278718222044	263
1	2204	124.416542537456	264
1	2204	124.416542537456	265
1	2204	124.416542537456	266
1	2229	126.223941887782	267
1	2229	126.223941887782	268
1	2229	126.223941887782	269
1	2257	127.322826941454	270
1	2257	127.322826941454	271
1	2257	127.322826941454	272
1	2282	129.105398686461	273
1	2282	129.105398686461	274
1	2282	129.105398686461	275
1	2305	131.003390584615	276
1	2305	131.003390584615	277
1	2305	131.003390584615	278
1	2329	132.737114467476	279
1	2329	132.737114467476	280
1	2329	132.737114467476	281
1	2354	134.268345854773	282
1	2354	134.268345854773	283
1	2354	134.268345854773	284
1	2380	136.10680753651	285
1	2380	136.10680753651	286
1	2380	136.10680753651	287
1	2405	138.085838859752	288
1	2405	138.085838859752	289
1	2405	138.085838859752	290
1	2433	139.973279289685	291
1	2433	139.973279289685	292
1	2433	139.973279289685	293
1	2454	141.618162117385	294
1	2454	141.618162117385	295
1	2454	141.618162117385	296
1	2479	143.390771765411	297
1	2479	143.390771765411	298
1	2479	143.390771765411	299
1	2504	144.729911348114	300
1	2504	144.729911348114	301
1	2504	144.729911348114	302
1	2529	146.103104145661	303
1	2529	146.103104145661	304
1	2529	146.103104145661	305
1	2555	148.10219458402	306
1	2555	148.10219458402	307
1	2555	148.10219458402	308
1	2579	149.322370642916	309
1	2579	149.322370642916	310
1	2579	149.322370642916	311
1	2604	150.573888977285	312
1	2604	150.573888977285	313
1	2604	150.573888977285	314
1	2630	152.371947472328	315
1	2630	152.371947472328	316
1	2630	152.371947472328	317
1	2654	153.918659211939	318
1	2654	153.918659211939	319
1	2654	153.918659211939	320
1	2680	155.418046205226	321
1	2680	155.418046205226	322
1	2680	155.418046205226	323
1	2705	156.954338109263	324
1	2705	156.954338109263	325
1	2705	156.954338109263	326
1	2729	158.326663173087	327
1	2729	158.326663173087	328
1	2729	158.326663173087	329
1	2754	159.791175455338	330
1	2754	159.791175455338	331
1	2754	159.791175455338	332
1	2782	161.229473920954	333
1	2782	161.229473920954	334
1	2782	161.229473920954	335
1	2804	162.445057772253	336
1	2804	162.445057772253	337
1	2804	162.445057772253	338
1	2830	163.732544423772	339
1	2830	163.732544423772	340
1	2830	163.732544423772	341
1	2855	165.576631215927	342
1	2855	165.576631215927	343
1	2855	165.576631215927	344
1	2880	167.48662790556	345
1	2880	167.48662790556	346
1	2880	167.48662790556	347
1	2904	168.678079299218	348
1	2904	168.678079299218	349
1	2904	168.678079299218	350
1	2930	170.001315486443	351
1	2930	170.001315486443	352
1	2930	170.001315486443	353
1	2954	171.050557188143	354
1	2954	171.050557188143	355
1	2954	171.050557188143	356
1	2979	172.732953496083	357
1	2979	172.732953496083	358
1	2979	172.732953496083	359
1	3004	174.173397323572	360
1	3004	174.173397323572	361
1	3004	174.173397323572	362
1	3032	175.253775517567	363
1	3032	175.253775517567	364
1	3032	175.253775517567	365
1	3055	177.059844602013	366
1	3055	177.059844602013	367
1	3055	177.059844602013	368
1	3079	178.066412036498	369
1	3079	178.066412036498	370
1	3079	178.066412036498	371
1	3104	179.903552807269	372
1	3104	179.903552807269	373
1	3104	179.903552807269	374
1	3130	181.115159094906	375
1	3130	181.115159094906	376
1	3130	181.115159094906	377
1	3155	182.704586076796	378
1	3155	182.704586076796	379
1	3155	182.704586076796	380
1	3179	184.594543374133	381
1	3179	184.594543374133	382
1	3179	184.594543374133	383
1	3205	185.730641645656	384
1	3205	185.730641645656	385
1	3205	185.730641645656	386
1	3236	187.584141871839	387
1	3236	187.584141871839	388
1	3236	187.584141871839	389
1	3257	189.114221767715	390
1	3257	189.114221767715	391
1	3257	189.114221767715	392
1	3279	190.80017057594	393
1	3279	190.80017057594	394
1	3279	190.80017057594	395
1	3307	192.648581610032	396
1	3307	192.648581610032	397
1	3307	192.648581610032	398
1	3330	194.371076612716	399
1	3330	194.371076612716	400
1	3330	194.371076612716	401
1	3355	195.765442926773	402
1	3355	195.765442926773	403
1	3355	195.765442926773	404
1	3380	197.087973205351	405
1	3380	197.087973205351	406
1	3380	197.087973205351	407
1	3405	198.087707620712	408
1	3405	198.087707620712	409
1	3405	198.087707620712	410
1	3437	199.942307357372	411
1	3437	199.942307357372	412
1	3437	199.942307357372	413
1	3457	201.765004959365	414
1	3457	201.765004959365	415
1	3457	201.765004959365	416
1	3480	203.31945589956	417
1	3480	203.31945589956	418
1	3480	203.31945589956	419
1	3504	204.788402585406	420
1	3504	204.788402585406	421
1	3504	204.788402585406	422
1	3529	206.085468195452	423
1	3529	206.085468195452	424
1	3529	206.085468195452	425
1	3555	207.804438574175	426
1	3555	207.804438574175	427
1	3555	207.804438574175	428
1	3579	209.48498491047	429
1	3579	209.48498491047	430
1	3579	209.48498491047	431
1	3611	211.484821242727	432
1	3611	211.484821242727	433
1	3611	211.484821242727	434
1	3629	212.508482327153	435
1	3629	212.508482327153	436
1	3629	212.508482327153	437
1	3654	213.612827326658	438
1	3654	213.612827326658	439
1	3654	213.612827326658	440
1	3680	215.19342795997	441
1	3680	215.19342795997	442
1	3680	215.19342795997	443
1	3705	217.051083807035	444
1	3705	217.051083807035	445
1	3705	217.051083807035	446
1	3729	218.80809555606	447
1	3729	218.80809555606	448
1	3729	218.80809555606	449
1	3754	220.343336668681	450
1	3754	220.343336668681	451
1	3754	220.343336668681	452
1	3780	222.309991958172	453
1	3780	222.309991958172	454
1	3780	222.309991958172	455
1	3804	224.091748577812	456
1	3804	224.091748577812	457
1	3804	224.091748577812	458
1	3829	225.743380308883	459
1	3829	225.743380308883	460
1	3829	225.743380308883	461
1	3855	227.313491857218	462
1	3855	227.313491857218	463
1	3855	227.313491857218	464
1	3879	228.905513976376	465
1	3879	228.905513976376	466
1	3879	228.905513976376	467
1	3904	229.959110649619	468
1	3904	229.959110649619	469
1	3904	229.959110649619	470
1	3930	230.959154436816	471
1	3930	230.959154436816	472
1	3930	230.959154436816	473
1	3954	232.340554740229	474
1	3954	232.340554740229	475
1	3954	232.340554740229	476
1	3980	233.472844177459	477
1	3980	233.472844177459	478
1	3980	233.472844177459	479
1	4005	234.954450097497	480
1	4005	234.954450097497	481
1	4005	234.954450097497	482
1	4029	236.463885361107	483
1	4029	236.463885361107	484
1	4029	236.463885361107	485
1	4055	238.286655336393	486
1	4055	238.286655336393	487
1	4055	238.286655336393	488
1	4080	239.298084903279	489
1	4080	239.298084903279	490
1	4080	239.298084903279	491
2	5	0.132352475226	0
2	5	0.132352475226	1
2	33	1.3033078859	2
2	33	1.3033078859	3
2	58	2.816087501838	4
2	58	2.816087501838	5
2	84	4.400660986712	6
2	84	4.400660986712	7
2	104	5.546872504142	8
2	104	5.546872504142	9
2	130	7.351126160597	10
2	130	7.351126160597	11
2	154	8.517323567506	12
2	154	8.517323567506	13
2	180	9.522229221638	14
2	180	9.522229221638	15
2	204	11.496848856881	16
2	204	11.496848856881	17
2	230	13.08383684445	18
2	230	13.08383684445	19
2	255	14.607501971122	20
2	255	14.607501971122	21
2	280	15.82960327968	22
2	280	15.82960327968	23
2	304	16.873115013014	24
2	304	16.873115013014	25
2	334	17.914990198921	26
2	334	17.914990198921	27
2	354	19.174808051574	28
2	354	19.174808051574	29
2	388	20.212880833868	30
2	388	20.212880833868	31
2	404	21.208274733837	32
2	404	21.208274733837	33
2	434	22.594985093147	34
2	434	22.594985093147	35
2	454	23.935518727476	36
2	454	23.935518727476	37
2	479	25.792385715404	38
2	479	25.792385715404	39
2	505	27.187425690802	40
2	505	27.187425690802	41
2	533	28.362631538147	42
2	533	28.362631538147	43
2	554	29.458244313272	44
2	554	29.458244313272	45
2	584	30.839725603673	46
2	584	30.839725603673	47
2	604	32.176997196502	48
2	604	32.176997196502	49
2	629	33.389565761083	50
2	629	33.389565761083	51
2	655	35.066738535453	52
2	655	35.066738535453	53
2	680	36.802364369454	54
2	680	36.802364369454	55
2	704	38.214177193978	56
2	704	38.214177193978	57
2	733	39.546601693664	58
2	733	39.546601693664	59
2	759	40.888167523411	60
2	759	40.888167523411	61
2	779	42.065984956874	62
2	779	42.065984956874	63
2	805	43.335163188467	64
2	805	43.335163188467	65
2	830	44.962321013538	66
2	830	44.962321013538	67
2	855	46.355560595351	68
2	855	46.355560595351	69
2	880	47.987257203147	70
2	880	47.987257203147	71
2	904	49.51379817342	72
2	904	49.51379817342	73
2	942	51.416129523296	74
2	942	51.416129523296	75
2	959	53.296042057281	76
2	959	53.296042057281	77
2	980	54.335334781444	78
2	980	54.335334781444	79
2	1008	55.938122128601	80
2	1008	55.938122128601	81
2	1033	57.638669593975	82
2	1033	57.638669593975	83
2	1054	59.447223274217	84
2	1054	59.447223274217	85
2	1079	60.601973915377	86
2	1079	60.601973915377	87
2	1104	61.855499186696	88
2	1104	61.855499186696	89
2	1130	63.08118668157	90
2	1130	63.08118668157	91
2	1154	64.354448162447	92
2	1154	64.354448162447	93
2	1179	65.906284945696	94
2	1179	65.906284945696	95
2	1218	67.391964272307	96
2	1218	67.391964272307	97
2	1230	68.60575014842	98
2	1230	68.60575014842	99
2	1254	70.069332111121	100
2	1254	70.069332111121	101
2	1280	71.572669024664	102
2	1280	71.572669024664	103
2	1304	73.025155800961	104
2	1304	73.025155800961	105
2	1330	74.042734133542	106
2	1330	74.042734133542	107
2	1355	75.655580424992	108
2	1355	75.655580424992	109
2	1380	77.564730568628	110
2	1380	77.564730568628	111
2	1404	78.845277521909	112
2	1404	78.845277521909	113
2	1429	80.249487835405	114
2	1429	80.249487835405	115
2	1454	81.476494044755	116
2	1454	81.476494044755	117
2	1479	82.54071080323	118
2	1479	82.54071080323	119
2	1504	83.873655361233	120
2	1504	83.873655361233	121
2	1529	85.195364172732	122
2	1529	85.195364172732	123
2	1554	86.282854097482	124
2	1554	86.282854097482	125
2	1579	87.496893158314	126
2	1579	87.496893158314	127
2	1604	88.757002887837	128
2	1604	88.757002887837	129
2	1629	89.991639138416	130
2	1629	89.991639138416	131
2	1654	91.758929935831	132
2	1654	91.758929935831	133
2	1680	92.882079310184	134
2	1680	92.882079310184	135
2	1709	94.613364685016	136
2	1709	94.613364685016	137
2	1729	96.155260495327	138
2	1729	96.155260495327	139
2	1754	97.52262814805	140
2	1754	97.52262814805	141
2	1780	99.076249968664	142
2	1780	99.076249968664	143
2	1804	100.749472566096	144
2	1804	100.749472566096	145
2	1829	102.684443852718	146
2	1829	102.684443852718	147
2	1854	104.584897795276	148
2	1854	104.584897795276	149
2	1879	106.24347003482	150
2	1879	106.24347003482	151
2	1905	107.740629024914	152
2	1905	107.740629024914	153
2	1930	109.421191865412	154
2	1930	109.421191865412	155
2	1955	110.795743959743	156
2	1955	110.795743959743	157
2	1980	111.871958794539	158
2	1980	111.871958794539	159
2	2005	113.408735392355	160
2	2005	113.408735392355	161
2	2030	114.573847041431	162
2	2030	114.573847041431	163
2	2054	115.945085632647	164
2	2054	115.945085632647	165
2	2080	117.275104785044	166
2	2080	117.275104785044	167
2	2104	119.114868849576	168
2	2104	119.114868849576	169
2	2129	120.632084734781	170
2	2129	120.632084734781	171
2	2155	121.650227178882	172
2	2155	121.650227178882	173
2	2179	123.273908358037	174
2	2179	123.273908358037	175
2	2205	124.417631523376	176
2	2205	124.417631523376	177
2	2237	126.249508471467	178
2	2237	126.249508471467	179
2	2254	127.304671564088	180
2	2254	127.304671564088	181
2	2279	129.088856215486	182
2	2279	129.088856215486	183
2	2304	130.997976016852	184
2	2304	130.997976016852	185
2	2334	132.761926717763	186
2	2334	132.761926717763	187
2	2355	134.271957462998	188
2	2355	134.271957462998	189
2	2379	136.104547730422	190
2	2379	136.104547730422	191
2	2404	138.081479970478	192
2	2404	138.081479970478	193
2	2429	139.941145307496	194
2	2429	139.941145307496	195
2	2459	141.629967128778	196
2	2459	141.629967128778	197
2	2480	143.392919281263	198
2	2480	143.392919281263	199
2	2505	144.731386096498	200
2	2505	144.731386096498	201
2	2530	146.112197925776	202
2	2530	146.112197925776	203
2	2554	148.096585058133	204
2	2554	148.096585058133	205
2	2580	149.322526481794	206
2	2580	149.322526481794	207
2	2614	150.607121616806	208
2	2614	150.607121616806	209
2	2629	152.365769764371	210
2	2629	152.365769764371	211
2	2660	153.939204650596	212
2	2660	153.939204650596	213
2	2679	155.417607065019	214
2	2679	155.417607065019	215
2	2704	156.946778148661	216
2	2704	156.946778148661	217
2	2730	158.328625516882	218
2	2730	158.328625516882	219
2	2755	159.798683949234	220
2	2755	159.798683949234	221
2	2779	161.210453331394	222
2	2779	161.210453331394	223
2	2805	162.450310937792	224
2	2805	162.450310937792	225
2	2829	163.729190204207	226
2	2829	163.729190204207	227
2	2854	165.573680097953	228
2	2854	165.573680097953	229
2	2879	167.485779676589	230
2	2879	167.485779676589	231
2	2917	168.712634502939	232
2	2917	168.712634502939	233
2	2929	169.993079821469	234
2	2929	169.993079821469	235
2	2955	171.053086715386	236
2	2955	171.053086715386	237
2	2980	172.735462901047	238
2	2980	172.735462901047	239
2	3016	174.203899321277	240
2	3016	174.203899321277	241
2	3029	175.240859243647	242
2	3029	175.240859243647	243
2	3054	177.056260373345	244
2	3054	177.056260373345	245
2	3080	178.070136887673	246
2	3080	178.070136887673	247
2	3108	179.918278877228	248
2	3108	179.918278877228	249
2	3129	181.111083802513	250
2	3129	181.111083802513	251
2	3154	182.699457602559	252
2	3154	182.699457602559	253
2	3183	184.606355401911	254
2	3183	184.606355401911	255
2	3204	185.728952687897	256
2	3204	185.728952687897	257
2	3229	187.560527381089	258
2	3229	187.560527381089	259
2	3254	189.090440604717	260
2	3254	189.090440604717	261
2	3280	190.809066550211	262
2	3280	190.809066550211	263
2	3304	192.627483504313	264
2	3304	192.627483504313	265
2	3329	194.367335130446	266
2	3329	194.367335130446	267
2	3354	195.765070648225	268
2	3354	195.765070648225	269
2	3379	197.080360636404	270
2	3379	197.080360636404	271
2	3404	198.084989680587	272
2	3404	198.084989680587	273
2	3429	199.9136530506	274
2	3429	199.9136530506	275
2	3454	201.754478061308	276
2	3454	201.754478061308	277
2	3479	203.315279346763	278
2	3479	203.315279346763	279
2	3505	204.788623257743	280
2	3505	204.788623257743	281
2	3530	206.086387186745	282
2	3530	206.086387186745	283
2	3554	207.800853047761	284
2	3554	207.800853047761	285
2	3580	209.494138759831	286
2	3580	209.494138759831	287
2	3604	211.452081779627	288
2	3604	211.452081779627	289
2	3630	212.509447868024	290
2	3630	212.509447868024	291
2	3660	213.628429231925	292
2	3660	213.628429231925	293
2	3679	215.18471521518	294
2	3679	215.18471521518	295
2	3704	217.046359329687	296
2	3704	217.046359329687	297
2	3730	218.810957924726	298
2	3730	218.810957924726	299
2	3758	220.354876447937	300
2	3758	220.354876447937	301
2	3779	222.301511216036	302
2	3779	222.301511216036	303
2	3805	224.098929397741	304
2	3805	224.098929397741	305
2	3833	225.758656762333	306
2	3833	225.758656762333	307
2	3854	227.311455183329	308
2	3854	227.311455183329	309
2	3880	228.907378264419	310
2	3880	228.907378264419	311
2	3917	229.992109865043	312
2	3917	229.992109865043	313
2	3929	230.958567760913	314
2	3929	230.958567760913	315
2	3955	232.348555642563	316
2	3955	232.348555642563	317
2	3979	233.468944377769	318
2	3979	233.468944377769	319
2	4004	234.952559236498	320
2	4004	234.952559236498	321
2	4030	236.469146643027	322
2	4030	236.469146643027	323
2	4054	238.28080765688	324
2	4054	238.28080765688	325
2	4079	239.293386124432	326
2	4079	239.293386124432	327
3	11	0.143663988337	0
3	11	0.143663988337	1
3	11	0.143663988337	2
3	34	1.305190715394	3
3	34	1.305190715394	4
3	34	1.305190715394	5
3	60	2.820314523948	6
3	60	2.820314523948	7
3	60	2.820314523948	8
3	94	4.439335491878	9
3	94	4.439335491878	10
3	94	4.439335491878	11
3	112	5.571984738729	12
3	112	5.571984738729	13
3	112	5.571984738729	14
3	140	7.384144297005	15
3	140	7.384144297005	16
3	140	7.384144297005	17
3	162	8.536223533595	18
3	162	8.536223533595	19
3	162	8.536223533595	20
3	190	9.561332007484	21
3	190	9.561332007484	22
3	190	9.561332007484	23
3	211	11.510356045156	24
3	211	11.510356045156	25
3	211	11.510356045156	26
3	236	13.103902831851	27
3	236	13.103902831851	28
3	236	13.103902831851	29
3	261	14.61752960912	30
3	261	14.61752960912	31
3	261	14.61752960912	32
3	290	15.850046055279	33
3	290	15.850046055279	34
3	290	15.850046055279	35
3	319	16.909123888198	36
3	319	16.909123888198	37
3	319	16.909123888198	38
3	338	17.924470156624	39
3	338	17.924470156624	40
3	338	17.924470156624	41
3	361	19.195935542561	42
3	361	19.195935542561	43
3	361	19.195935542561	44
3	389	20.21337806083	45
3	389	20.21337806083	46
3	389	20.21337806083	47
3	416	21.255054026791	48
3	416	21.255054026791	49
3	416	21.255054026791	50
3	433	22.590417580714	51
3	433	22.590417580714	52
3	433	22.590417580714	53
3	469	23.982599327165	54
3	469	23.982599327165	55
3	469	23.982599327165	56
3	486	25.830577455217	57
3	486	25.830577455217	58
3	486	25.830577455217	59
3	509	27.190953867683	60
3	509	27.190953867683	61
3	509	27.190953867683	62
3	535	28.363447932321	63
3	535	28.363447932321	64
3	535	28.363447932321	65
3	561	29.484006576139	66
3	561	29.484006576139	67
3	561	29.484006576139	68
3	588	30.842145251919	69
3	588	30.842145251919	70
3	588	30.842145251919	71
3	611	32.20500736418	72
3	611	32.20500736418	73
3	611	32.20500736418	74
3	636	33.404278433022	75
3	636	33.404278433022	76
3	636	33.404278433022	77
3	659	35.069727001737	78
3	659	35.069727001737	79
3	659	35.069727001737	80
3	686	36.828771652812	81
3	686	36.828771652812	82
3	686	36.828771652812	83
3	711	38.233689827176	84
3	711	38.233689827176	85
3	711	38.233689827176	86
3	736	39.560220827399	87
3	736	39.560220827399	88
3	736	39.560220827399	89
3	758	40.880618764433	90
3	758	40.880618764433	91
3	758	40.880618764433	92
3	787	42.09968173021	93
3	787	42.09968173021	94
3	787	42.09968173021	95
3	812	43.349351843795	96
3	812	43.349351843795	97
3	812	43.349351843795	98
3	834	44.968354811749	99
3	834	44.968354811749	100
3	834	44.968354811749	101
3	861	46.36800130617	102
3	861	46.36800130617	103
3	861	46.36800130617	104
3	885	47.997207367404	105
3	885	47.997207367404	106
3	885	47.997207367404	107
3	912	49.539319637083	108
3	912	49.539319637083	109
3	912	49.539319637083	110
3	933	51.400666387851	111
3	933	51.400666387851	112
3	933	51.400666387851	113
3	958	53.290215985088	114
3	958	53.290215985088	115
3	958	53.290215985088	116
3	987	54.34597098874	117
3	987	54.34597098874	118
3	987	54.34597098874	119
3	1016	55.965085749863	120
3	1016	55.965085749863	121
3	1016	55.965085749863	122
3	1041	57.66282245579	123
3	1041	57.66282245579	124
3	1041	57.66282245579	125
3	1066	59.476489612566	126
3	1066	59.476489612566	127
3	1066	59.476489612566	128
3	1091	60.645385681158	129
3	1091	60.645385681158	130
3	1091	60.645385681158	131
3	1112	61.885035677924	132
3	1112	61.885035677924	133
3	1112	61.885035677924	134
3	1134	63.088934749798	135
3	1134	63.088934749798	136
3	1134	63.088934749798	137
3	1166	64.382850357066	138
3	1166	64.382850357066	139
3	1166	64.382850357066	140
3	1187	65.930758041697	141
3	1187	65.930758041697	142
3	1187	65.930758041697	143
3	1208	67.37542291716	144
3	1208	67.37542291716	145
3	1208	67.37542291716	146
3	1241	68.654366314693	147
3	1241	68.654366314693	148
3	1241	68.654366314693	149
3	1261	70.083221803394	150
3	1261	70.083221803394	151
3	1261	70.083221803394	152
3	1286	71.585957333624	153
3	1286	71.585957333624	154
3	1286	71.585957333624	155
3	1311	73.036530212409	156
3	1311	73.036530212409	157
3	1311	73.036530212409	158
3	1340	74.071185310938	159
3	1340	74.071185310938	160
3	1340	74.071185310938	161
3	1360	75.663812160742	162
3	1360	75.663812160742	163
3	1360	75.663812160742	164
3	1384	77.566144478749	165
3	1384	77.566144478749	166
3	1384	77.566144478749	167
3	1415	78.871088549379	168
3	1415	78.871088549379	169
3	1415	78.871088549379	170
3	1437	80.270976093197	171
3	1437	80.270976093197	172
3	1437	80.270976093197	173
3	1469	81.509614131527	174
3	1469	81.509614131527	175
3	1469	81.509614131527	176
3	1486	82.555767260724	177
3	1486	82.555767260724	178
3	1486	82.555767260724	179
3	1519	83.915211088428	180
3	1519	83.915211088428	181
3	1519	83.915211088428	182
3	1544	85.233567596585	183
3	1544	85.233567596585	184
3	1544	85.233567596585	185
3	1565	86.315238424478	186
3	1565	86.315238424478	187
3	1565	86.315238424478	188
3	1586	87.517479962768	189
3	1586	87.517479962768	190
3	1586	87.517479962768	191
3	1612	88.78205528096	192
3	1612	88.78205528096	193
3	1612	88.78205528096	194
3	1637	90.012102267187	195
3	1637	90.012102267187	196
3	1637	90.012102267187	197
3	1662	91.778925003678	198
3	1662	91.778925003678	199
3	1662	91.778925003678	200
3	1686	92.892779281404	201
3	1686	92.892779281404	202
3	1686	92.892779281404	203
3	1708	94.609727857981	204
3	1708	94.609727857981	205
3	1708	94.609727857981	206
3	1736	96.172379724891	207
3	1736	96.172379724891	208
3	1736	96.172379724891	209
3	1761	97.533532907179	210
3	1761	97.533532907179	211
3	1761	97.533532907179	212
3	1784	99.084349748967	213
3	1784	99.084349748967	214
3	1784	99.084349748967	215
3	1811	100.763043336878	216
3	1811	100.763043336878	217
3	1811	100.763043336878	218
3	1841	102.720853519406	219
3	1841	102.720853519406	220
3	1841	102.720853519406	221
3	1862	104.611691482989	222
3	1862	104.611691482989	223
3	1862	104.611691482989	224
3	1890	106.292787381378	225
3	1890	106.292787381378	226
3	1890	106.292787381378	227
3	1909	107.745523374631	228
3	1909	107.745523374631	229
3	1909	107.745523374631	230
3	1934	109.431038623871	231
3	1934	109.431038623871	232
3	1934	109.431038623871	233
3	1961	110.806371811686	234
3	1961	110.806371811686	235
3	1961	110.806371811686	236
3	1984	111.878475865926	237
3	1984	111.878475865926	238
3	1984	111.878475865926	239
3	2011	113.427004114549	240
3	2011	113.427004114549	241
3	2011	113.427004114549	242
3	2036	114.592167870458	243
3	2036	114.592167870458	244
3	2036	114.592167870458	245
3	2066	115.978640821499	246
3	2066	115.978640821499	247
3	2066	115.978640821499	248
3	2086	117.285778497995	249
3	2086	117.285778497995	250
3	2086	117.285778497995	251
3	2112	119.13482203214	252
3	2112	119.13482203214	253
3	2112	119.13482203214	254
3	2137	120.653491677402	255
3	2137	120.653491677402	256
3	2137	120.653491677402	257
3	2162	121.666989958037	258
3	2162	121.666989958037	259
3	2162	121.666989958037	260
3	2191	123.308225668318	261
3	2191	123.308225668318	262
3	2191	123.308225668318	263
3	2209	124.426795929066	264
3	2209	124.426795929066	265
3	2209	124.426795929066	266
3	2238	126.252133301949	267
3	2238	126.252133301949	268
3	2238	126.252133301949	269
3	2262	127.338610979192	270
3	2262	127.338610979192	271
3	2262	127.338610979192	272
3	2286	129.116189241095	273
3	2286	129.116189241095	274
3	2286	129.116189241095	275
3	2312	131.016831937684	276
3	2312	131.016831937684	277
3	2312	131.016831937684	278
3	2335	132.764478131282	279
3	2335	132.764478131282	280
3	2335	132.764478131282	281
3	2359	134.281319632451	282
3	2359	134.281319632451	283
3	2359	134.281319632451	284
3	2386	136.119927782588	285
3	2386	136.119927782588	286
3	2386	136.119927782588	287
3	2419	138.132471370253	288
3	2419	138.132471370253	289
3	2419	138.132471370253	290
3	2441	139.995216014594	291
3	2441	139.995216014594	292
3	2441	139.995216014594	293
3	2466	141.649562737561	294
3	2466	141.649562737561	295
3	2466	141.649562737561	296
3	2486	143.405236817438	297
3	2486	143.405236817438	298
3	2486	143.405236817438	299
3	2509	144.740527761309	300
3	2509	144.740527761309	301
3	2509	144.740527761309	302
3	2535	146.11808138767	303
3	2535	146.11808138767	304
3	2535	146.11808138767	305
3	2561	148.112594779169	306
3	2561	148.112594779169	307
3	2561	148.112594779169	308
3	2586	149.335163786321	309
3	2586	149.335163786321	310
3	2586	149.335163786321	311
3	2608	150.584589359926	312
3	2608	150.584589359926	313
3	2608	150.584589359926	314
3	2637	152.385091325149	315
3	2637	152.385091325149	316
3	2637	152.385091325149	317
3	2659	153.933293141236	318
3	2659	153.933293141236	319
3	2659	153.933293141236	320
3	2687	155.432912824006	321
3	2687	155.432912824006	322
3	2687	155.432912824006	323
3	2715	156.972977589772	324
3	2715	156.972977589772	325
3	2715	156.972977589772	326
3	2736	158.341715925118	327
3	2736	158.341715925118	328
3	2736	158.341715925118	329
3	2759	159.80507097264	330
3	2759	159.80507097264	331
3	2759	159.80507097264	332
3	2786	161.239976337485	333
3	2786	161.239976337485	334
3	2786	161.239976337485	335
3	2811	162.46259825771	336
3	2811	162.46259825771	337
3	2811	162.46259825771	338
3	2837	163.746794443984	339
3	2837	163.746794443984	340
3	2837	163.746794443984	341
3	2862	165.59526621988	342
3	2862	165.59526621988	343
3	2862	165.59526621988	344
3	2887	167.497245755741	345
3	2887	167.497245755741	346
3	2887	167.497245755741	347
3	2909	168.691634751021	348
3	2909	168.691634751021	349
3	2909	168.691634751021	350
3	2944	170.027893534113	351
3	2944	170.027893534113	352
3	2944	170.027893534113	353
3	2961	171.068003547364	354
3	2961	171.068003547364	355
3	2961	171.068003547364	356
3	2987	172.750027729985	357
3	2987	172.750027729985	358
3	2987	172.750027729985	359
3	3008	174.184535656627	360
3	3008	174.184535656627	361
3	3008	174.184535656627	362
3	3041	175.286529930924	363
3	3041	175.286529930924	364
3	3041	175.286529930924	365
3	3062	177.072012730613	366
3	3062	177.072012730613	367
3	3062	177.072012730613	368
3	3084	178.078532161383	369
3	3084	178.078532161383	370
3	3084	178.078532161383	371
3	3109	179.920374186135	372
3	3109	179.920374186135	373
3	3109	179.920374186135	374
3	3136	181.128269889048	375
3	3136	181.128269889048	376
3	3136	181.128269889048	377
3	3162	182.719763431243	378
3	3162	182.719763431243	379
3	3162	182.719763431243	380
3	3184	184.612702493441	381
3	3184	184.612702493441	382
3	3184	184.612702493441	383
3	3212	185.743429941981	384
3	3212	185.743429941981	385
3	3212	185.743429941981	386
3	3240	187.596294367815	387
3	3240	187.596294367815	388
3	3240	187.596294367815	389
3	3265	189.128251837543	390
3	3265	189.128251837543	391
3	3265	189.128251837543	392
3	3284	190.81115291073	393
3	3284	190.81115291073	394
3	3284	190.81115291073	395
3	3315	192.664945173211	396
3	3315	192.664945173211	397
3	3315	192.664945173211	398
3	3336	194.38313757378	399
3	3336	194.38313757378	400
3	3336	194.38313757378	401
3	3362	195.783994335957	402
3	3362	195.783994335957	403
3	3362	195.783994335957	404
3	3387	197.103151456778	405
3	3387	197.103151456778	406
3	3387	197.103151456778	407
3	3411	198.108597144557	408
3	3411	198.108597144557	409
3	3411	198.108597144557	410
3	3441	199.952287304318	411
3	3441	199.952287304318	412
3	3441	199.952287304318	413
3	3462	201.791607060255	414
3	3462	201.791607060255	415
3	3462	201.791607060255	416
3	3487	203.331527655151	417
3	3487	203.331527655151	418
3	3487	203.331527655151	419
3	3512	204.803069714912	420
3	3512	204.803069714912	421
3	3512	204.803069714912	422
3	3536	206.103685662825	423
3	3536	206.103685662825	424
3	3536	206.103685662825	425
3	3562	207.817602225435	426
3	3562	207.817602225435	427
3	3562	207.817602225435	428
3	3591	209.511145596523	429
3	3591	209.511145596523	430
3	3591	209.511145596523	431
3	3619	211.50304652783	432
3	3619	211.50304652783	433
3	3619	211.50304652783	434
3	3637	212.524417011391	435
3	3637	212.524417011391	436
3	3637	212.524417011391	437
3	3659	213.627688346993	438
3	3659	213.627688346993	439
3	3659	213.627688346993	440
3	3687	215.209614228999	441
3	3687	215.209614228999	442
3	3687	215.209614228999	443
3	3716	217.081629496878	444
3	3716	217.081629496878	445
3	3716	217.081629496878	446
3	3737	218.827518177511	447
3	3737	218.827518177511	448
3	3737	218.827518177511	449
3	3759	220.358430970628	450
3	3759	220.358430970628	451
3	3759	220.358430970628	452
3	3787	222.321480317126	453
3	3787	222.321480317126	454
3	3787	222.321480317126	455
3	3810	224.107277396902	456
3	3810	224.107277396902	457
3	3810	224.107277396902	458
3	3835	225.768483687798	459
3	3835	225.768483687798	460
3	3835	225.768483687798	461
3	3862	227.330723620799	462
3	3862	227.330723620799	463
3	3862	227.330723620799	464
3	3887	228.917689022998	465
3	3887	228.917689022998	466
3	3887	228.917689022998	467
3	3912	229.98027392987	468
3	3912	229.98027392987	469
3	3912	229.98027392987	470
3	3937	230.971436876665	471
3	3937	230.971436876665	472
3	3937	230.971436876665	473
3	3965	232.372002827826	474
3	3965	232.372002827826	475
3	3965	232.372002827826	476
3	3987	233.496053560972	477
3	3987	233.496053560972	478
3	3987	233.496053560972	479
3	4011	234.967163804714	480
3	4011	234.967163804714	481
3	4011	234.967163804714	482
3	4035	236.478539864268	483
3	4035	236.478539864268	484
3	4035	236.478539864268	485
3	4066	238.312433996155	486
3	4066	238.312433996155	487
3	4066	238.312433996155	488
3	4086	239.311937503653	489
3	4086	239.311937503653	490
3	4086	239.311937503653	491
4	12	0.145107829276	0
4	12	0.145107829276	1
4	12	0.145107829276	2
4	35	1.307861062436	3
4	35	1.307861062436	4
4	35	1.307861062436	5
4	59	2.81831255688	6
4	59	2.81831255688	7
4	59	2.81831255688	8
4	83	4.391778872466	9
4	83	4.391778872466	10
4	83	4.391778872466	11
4	108	5.562085895251	12
4	108	5.562085895251	13
4	108	5.562085895251	14
4	136	7.371520861249	15
4	136	7.371520861249	16
4	136	7.371520861249	17
4	158	8.530462305871	18
4	158	8.530462305871	19
4	158	8.530462305871	20
4	186	9.540081103569	21
4	186	9.540081103569	22
4	186	9.540081103569	23
4	215	11.522872767638	24
4	215	11.522872767638	25
4	215	11.522872767638	26
4	237	13.108381355174	27
4	237	13.108381355174	28
4	237	13.108381355174	29
4	262	14.618601989235	30
4	262	14.618601989235	31
4	262	14.618601989235	32
4	284	15.834411067564	33
4	284	15.834411067564	34
4	284	15.834411067564	35
4	307	16.88365137047	36
4	307	16.88365137047	37
4	307	16.88365137047	38
4	333	17.908325313872	39
4	333	17.908325313872	40
4	333	17.908325313872	41
4	366	19.216215076565	42
4	366	19.216215076565	43
4	366	19.216215076565	44
4	383	20.199298832141	45
4	383	20.199298832141	46
4	383	20.199298832141	47
4	407	21.223684768908	48
4	407	21.223684768908	49
4	407	21.223684768908	50
4	440	22.606855393423	51
4	440	22.606855393423	52
4	440	22.606855393423	53
4	458	23.95823723129	54
4	458	23.95823723129	55
4	458	23.95823723129	56
4	487	25.835738940749	57
4	487	25.835738940749	58
4	487	25.835738940749	59
4	510	27.195122924802	60
4	510	27.195122924802	61
4	510	27.195122924802	62
4	534	28.362690606983	63
4	534	28.362690606983	64
4	534	28.362690606983	65
4	562	29.485739984424	66
4	562	29.485739984424	67
4	562	29.485739984424	68
4	583	30.831858324949	69
4	583	30.831858324949	70
4	583	30.831858324949	71
4	615	32.215543102864	72
4	615	32.215543102864	73
4	615	32.215543102864	74
4	647	33.431681286985	75
4	647	33.431681286985	76
4	647	33.431681286985	77
4	660	35.071693292645	78
4	660	35.071693292645	79
4	660	35.071693292645	80
4	687	36.834572121376	81
4	687	36.834572121376	82
4	687	36.834572121376	83
4	712	38.242573440673	84
4	712	38.242573440673	85
4	712	38.242573440673	86
4	741	39.574289153961	87
4	741	39.574289153961	88
4	741	39.574289153961	89
4	764	40.893440969143	90
4	764	40.893440969143	91
4	764	40.893440969143	92
4	786	42.090590860181	93
4	786	42.090590860181	94
4	786	42.090590860181	95
4	811	43.34576624862	96
4	811	43.34576624862	97
4	811	43.34576624862	98
4	837	44.972805151529	99
4	837	44.972805151529	100
4	837	44.972805151529	101
4	869	46.392802166723	102
4	869	46.392802166723	103
4	869	46.392802166723	104
4	884	47.994553749693	105
4	884	47.994553749693	106
4	884	47.994553749693	107
4	908	49.535778059399	108
4	908	49.535778059399	109
4	908	49.535778059399	110
4	934	51.404751739729	111
4	934	51.404751739729	112
4	934	51.404751739729	113
4	972	53.349346300763	114
4	972	53.349346300763	115
4	972	53.349346300763	116
4	984	54.343193001586	117
4	984	54.343193001586	118
4	984	54.343193001586	119
4	1011	55.95242199356	120
4	1011	55.95242199356	121
4	1011	55.95242199356	122
4	1034	57.643376715636	123
4	1034	57.643376715636	124
4	1034	57.643376715636	125
4	1058	59.457363288082	126
4	1058	59.457363288082	127
4	1058	59.457363288082	128
4	1082	60.61326180763	129
4	1082	60.61326180763	130
4	1082	60.61326180763	131
4	1111	61.88358940653	132
4	1111	61.88358940653	133
4	1111	61.88358940653	134
4	1140	63.102987238922	135
4	1140	63.102987238922	136
4	1140	63.102987238922	137
4	1158	64.365744257392	138
4	1158	64.365744257392	139
4	1158	64.365744257392	140
4	1186	65.921226127249	141
4	1186	65.921226127249	142
4	1186	65.921226127249	143
4	1209	67.376164426247	144
4	1209	67.376164426247	145
4	1209	67.376164426247	146
4	1236	68.61694588281	147
4	1236	68.61694588281	148
4	1236	68.61694588281	149
4	1262	70.085195813539	150
4	1262	70.085195813539	151
4	1262	70.085195813539	152
4	1287	71.592741758907	153
4	1287	71.592741758907	154
4	1287	71.592741758907	155
4	1312	73.037323058599	156
4	1312	73.037323058599	157
4	1312	73.037323058599	158
4	1336	74.05472559226	159
4	1336	74.05472559226	160
4	1336	74.05472559226	161
4	1359	75.662010062806	162
4	1359	75.662010062806	163
4	1359	75.662010062806	164
4	1390	77.57720698247	165
4	1390	77.57720698247	166
4	1390	77.57720698247	167
4	1407	78.855989126453	168
4	1407	78.855989126453	169
4	1407	78.855989126453	170
4	1433	80.262268689745	171
4	1433	80.262268689745	172
4	1433	80.262268689745	173
4	1457	81.487121119551	174
4	1457	81.487121119551	175
4	1457	81.487121119551	176
4	1487	82.560634460817	177
4	1487	82.560634460817	178
4	1487	82.560634460817	179
4	1511	83.890524785991	180
4	1511	83.890524785991	181
4	1511	83.890524785991	182
4	1532	85.205567719671	183
4	1532	85.205567719671	184
4	1532	85.205567719671	185
4	1561	86.3006831296	186
4	1561	86.3006831296	187
4	1561	86.3006831296	188
4	1587	87.521486238347	189
4	1587	87.521486238347	190
4	1587	87.521486238347	191
4	1611	88.777338841658	192
4	1611	88.777338841658	193
4	1611	88.777338841658	194
4	1636	90.010332445771	195
4	1636	90.010332445771	196
4	1636	90.010332445771	197
4	1658	91.771339789816	198
4	1658	91.771339789816	199
4	1658	91.771339789816	200
4	1694	92.913889681106	201
4	1694	92.913889681106	202
4	1694	92.913889681106	203
4	1710	94.613924509518	204
4	1710	94.613924509518	205
4	1710	94.613924509518	206
4	1740	96.183320487487	207
4	1740	96.183320487487	208
4	1740	96.183320487487	209
4	1762	97.542662568302	210
4	1762	97.542662568302	211
4	1762	97.542662568302	212
4	1792	99.09903282636	213
4	1792	99.09903282636	214
4	1792	99.09903282636	215
4	1822	100.813864551646	216
4	1822	100.813864551646	217
4	1822	100.813864551646	218
4	1833	102.696848698644	219
4	1833	102.696848698644	220
4	1833	102.696848698644	221
4	1861	104.602365255355	222
4	1861	104.602365255355	223
4	1861	104.602365255355	224
4	1882	106.262739166249	225
4	1882	106.262739166249	226
4	1882	106.262739166249	227
4	1922	107.787714715598	228
4	1922	107.787714715598	229
4	1922	107.787714715598	230
4	1940	109.442494069157	231
4	1940	109.442494069157	232
4	1940	109.442494069157	233
4	1962	110.812797024923	234
4	1962	110.812797024923	235
4	1962	110.812797024923	236
4	1997	111.917078977084	237
4	1997	111.917078977084	238
4	1997	111.917078977084	239
4	2022	113.457985427152	240
4	2022	113.457985427152	241
4	2022	113.457985427152	242
4	2045	114.618599845678	243
4	2045	114.618599845678	244
4	2045	114.618599845678	245
4	2057	115.955162766183	246
4	2057	115.955162766183	247
4	2057	115.955162766183	248
4	2087	117.285892496571	249
4	2087	117.285892496571	250
4	2087	117.285892496571	251
4	2111	119.133083013335	252
4	2111	119.133083013335	253
4	2111	119.133083013335	254
4	2136	120.649011082035	255
4	2136	120.649011082035	256
4	2136	120.649011082035	257
4	2161	121.664764960579	258
4	2161	121.664764960579	259
4	2161	121.664764960579	260
4	2183	123.288249724287	261
4	2183	123.288249724287	262
4	2183	123.288249724287	263
4	2212	124.436669790056	264
4	2212	124.436669790056	265
4	2212	124.436669790056	266
4	2233	126.233999601878	267
4	2233	126.233999601878	268
4	2233	126.233999601878	269
4	2258	127.330925153247	270
4	2258	127.330925153247	271
4	2258	127.330925153247	272
4	2287	129.117058694577	273
4	2287	129.117058694577	274
4	2287	129.117058694577	275
4	2308	131.011233461205	276
4	2308	131.011233461205	277
4	2308	131.011233461205	278
4	2333	132.759989664098	279
4	2333	132.759989664098	280
4	2333	132.759989664098	281
4	2362	134.289008998792	282
4	2362	134.289008998792	283
4	2362	134.289008998792	284
4	2392	136.137198168392	285
4	2392	136.137198168392	286
4	2392	136.137198168392	287
4	2408	138.095259220098	288
4	2408	138.095259220098	289
4	2408	138.095259220098	290
4	2432	139.965146176046	291
4	2432	139.965146176046	292
4	2432	139.965146176046	293
4	2458	141.628994691861	294
4	2458	141.628994691861	295
4	2458	141.628994691861	296
4	2490	143.428449388092	297
4	2490	143.428449388092	298
4	2490	143.428449388092	299
4	2515	144.754058439995	300
4	2515	144.754058439995	301
4	2515	144.754058439995	302
4	2534	146.116071603983	303
4	2534	146.116071603983	304
4	2534	146.116071603983	305
4	2562	148.115159941263	306
4	2562	148.115159941263	307
4	2562	148.115159941263	308
4	2593	149.357015355907	309
4	2593	149.357015355907	310
4	2593	149.357015355907	311
4	2613	150.600059503262	312
4	2613	150.600059503262	313
4	2613	150.600059503262	314
4	2633	152.380901163331	315
4	2633	152.380901163331	316
4	2633	152.380901163331	317
4	2658	153.931361838908	318
4	2658	153.931361838908	319
4	2658	153.931361838908	320
4	2686	155.4326636602	321
4	2686	155.4326636602	322
4	2686	155.4326636602	323
4	2708	156.957450085894	324
4	2708	156.957450085894	325
4	2708	156.957450085894	326
4	2737	158.34391398643	327
4	2737	158.34391398643	328
4	2737	158.34391398643	329
4	2767	159.824748519377	330
4	2767	159.824748519377	331
4	2767	159.824748519377	332
4	2787	161.241958763861	333
4	2787	161.241958763861	334
4	2787	161.241958763861	335
4	2812	162.469866960898	336
4	2812	162.469866960898	337
4	2812	162.469866960898	338
4	2833	163.73986867063	339
4	2833	163.73986867063	340
4	2833	163.73986867063	341
4	2861	165.592111227931	342
4	2861	165.592111227931	343
4	2861	165.592111227931	344
4	2883	167.496014006757	345
4	2883	167.496014006757	346
4	2883	167.496014006757	347
4	2908	168.688354768051	348
4	2908	168.688354768051	349
4	2908	168.688354768051	350
4	2933	170.003655016103	351
4	2933	170.003655016103	352
4	2933	170.003655016103	353
4	2965	171.078915147012	354
4	2965	171.078915147012	355
4	2965	171.078915147012	356
4	2986	172.748093064069	357
4	2986	172.748093064069	358
4	2986	172.748093064069	359
4	3009	174.187921062286	360
4	3009	174.187921062286	361
4	3009	174.187921062286	362
4	3033	175.257979389456	363
4	3033	175.257979389456	364
4	3033	175.257979389456	365
4	3058	177.067912193133	366
4	3058	177.067912193133	367
4	3058	177.067912193133	368
4	3091	178.091341609728	369
4	3091	178.091341609728	370
4	3091	178.091341609728	371
4	3117	179.935594780956	372
4	3117	179.935594780956	373
4	3117	179.935594780956	374
4	3141	181.146940288271	375
4	3141	181.146940288271	376
4	3141	181.146940288271	377
4	3161	182.718399141223	378
4	3161	182.718399141223	379
4	3161	182.718399141223	380
4	3185	184.613598958239	381
4	3185	184.613598958239	382
4	3185	184.613598958239	383
4	3208	185.739330412782	384
4	3208	185.739330412782	385
4	3208	185.739330412782	386
4	3232	187.572560996862	387
4	3232	187.572560996862	388
4	3232	187.572560996862	389
4	3258	189.115991999715	390
4	3258	189.115991999715	391
4	3258	189.115991999715	392
4	3285	190.815353878768	393
4	3285	190.815353878768	394
4	3285	190.815353878768	395
4	3308	192.649071090005	396
4	3308	192.649071090005	397
4	3308	192.649071090005	398
4	3337	194.383358173883	399
4	3337	194.383358173883	400
4	3337	194.383358173883	401
4	3361	195.776430163726	402
4	3361	195.776430163726	403
4	3361	195.776430163726	404
4	3383	197.097009375949	405
4	3383	197.097009375949	406
4	3383	197.097009375949	407
4	3412	198.109855574767	408
4	3412	198.109855574767	409
4	3412	198.109855574767	410
4	3432	199.924617968799	411
4	3432	199.924617968799	412
4	3432	199.924617968799	413
4	3461	201.791260455878	414
4	3461	201.791260455878	415
4	3461	201.791260455878	416
4	3483	203.327367231616	417
4	3483	203.327367231616	418
4	3483	203.327367231616	419
4	3511	204.800737411334	420
4	3511	204.800737411334	421
4	3511	204.800737411334	422
4	3537	206.105696961007	423
4	3537	206.105696961007	424
4	3537	206.105696961007	425
4	3558	207.812555194486	426
4	3558	207.812555194486	427
4	3558	207.812555194486	428
4	3584	209.495892768161	429
4	3584	209.495892768161	430
4	3584	209.495892768161	431
4	3607	211.472593113064	432
4	3607	211.472593113064	433
4	3607	211.472593113064	434
4	3636	212.521270469679	435
4	3636	212.521270469679	436
4	3636	212.521270469679	437
4	3658	213.62311151668	438
4	3658	213.62311151668	439
4	3658	213.62311151668	440
4	3683	215.201083530891	441
4	3683	215.201083530891	442
4	3683	215.201083530891	443
4	3708	217.058156361773	444
4	3708	217.058156361773	445
4	3708	217.058156361773	446
4	3736	218.821397758335	447
4	3736	218.821397758335	448
4	3736	218.821397758335	449
4	3760	220.361863701854	450
4	3760	220.361863701854	451
4	3760	220.361863701854	452
4	3786	222.320113111119	453
4	3786	222.320113111119	454
4	3786	222.320113111119	455
4	3809	224.104689566872	456
4	3809	224.104689566872	457
4	3809	224.104689566872	458
4	3834	225.76639767755	459
4	3834	225.76639767755	460
4	3834	225.76639767755	461
4	3861	227.327346906214	462
4	3861	227.327346906214	463
4	3861	227.327346906214	464
4	3884	228.916973174617	465
4	3884	228.916973174617	466
4	3884	228.916973174617	467
4	3908	229.970114006754	468
4	3908	229.970114006754	469
4	3908	229.970114006754	470
4	3936	230.971292709985	471
4	3936	230.971292709985	472
4	3936	230.971292709985	473
4	3959	232.353871382339	474
4	3959	232.353871382339	475
4	3959	232.353871382339	476
4	3986	233.489020810874	477
4	3986	233.489020810874	478
4	3986	233.489020810874	479
4	4022	235.005912511064	480
4	4022	235.005912511064	481
4	4022	235.005912511064	482
4	4034	236.475979081674	483
4	4034	236.475979081674	484
4	4034	236.475979081674	485
4	4061	238.298310175351	486
4	4061	238.298310175351	487
4	4061	238.298310175351	488
4	4087	239.31244073388	489
4	4087	239.31244073388	490
4	4087	239.31244073388	491
5	16	0.154941760066	0
5	16	0.154941760066	1
5	45	1.322227663286	2
5	45	1.322227663286	3
5	70	2.841193081297	4
5	70	2.841193081297	5
5	98	4.452539931216	6
5	98	4.452539931216	7
5	119	5.588976637739	8
5	119	5.588976637739	9
5	144	7.397151899224	10
5	144	7.397151899224	11
5	173	8.570813065938	12
5	173	8.570813065938	13
5	198	9.582163767655	14
5	198	9.582163767655	15
5	220	11.536817641987	16
5	220	11.536817641987	17
5	244	13.121841522747	18
5	244	13.121841522747	19
5	270	14.635076030917	20
5	270	14.635076030917	21
5	295	15.860363517089	22
5	295	15.860363517089	23
5	323	16.924787079506	24
5	323	16.924787079506	25
5	345	17.934903712709	26
5	345	17.934903712709	27
5	373	19.22763598207	28
5	373	19.22763598207	29
5	398	20.229201073469	30
5	398	20.229201073469	31
5	423	21.281983263058	32
5	423	21.281983263058	33
5	441	22.616771885844	34
5	441	22.616771885844	35
5	473	24.020210842869	36
5	473	24.020210842869	37
5	494	25.852366981017	38
5	494	25.852366981017	39
5	517	27.203729040154	40
5	517	27.203729040154	41
5	545	28.375446478744	42
5	545	28.375446478744	43
5	566	29.494427783171	44
5	566	29.494427783171	45
5	598	30.857884146658	46
5	598	30.857884146658	47
5	616	32.216567126376	48
5	616	32.216567126376	49
5	640	33.414723070239	50
5	640	33.414723070239	51
5	669	35.094416554901	52
5	669	35.094416554901	53
5	695	36.849114689724	54
5	695	36.849114689724	55
5	716	38.251419505322	56
5	716	38.251419505322	57
5	745	39.582445692886	58
5	745	39.582445692886	59
5	763	40.891473029375	60
5	763	40.891473029375	61
5	795	42.109871093329	62
5	795	42.109871093329	63
5	820	43.365979429319	64
5	820	43.365979429319	65
5	844	44.987561909656	66
5	844	44.987561909656	67
5	873	46.413999142134	68
5	873	46.413999142134	69
5	895	48.013669788554	70
5	895	48.013669788554	71
5	920	49.558546367497	72
5	920	49.558546367497	73
5	938	51.414483141587	74
5	938	51.414483141587	75
5	963	53.303685531845	76
5	963	53.303685531845	77
5	995	54.366866758709	78
5	995	54.366866758709	79
5	1023	55.993670647463	80
5	1023	55.993670647463	81
5	1048	57.674197032779	82
5	1048	57.674197032779	83
5	1073	59.489920972248	84
5	1073	59.489920972248	85
5	1098	60.659223398047	86
5	1098	60.659223398047	87
5	1119	61.899507278115	88
5	1119	61.899507278115	89
5	1141	63.10483528163	90
5	1141	63.10483528163	91
5	1173	64.418274623288	92
5	1173	64.418274623288	93
5	1194	65.945597106397	94
5	1194	65.945597106397	95
5	1217	67.391919658572	96
5	1217	67.391919658572	97
5	1248	68.681859378121	98
5	1248	68.681859378121	99
5	1270	70.099509392433	100
5	1270	70.099509392433	101
5	1292	71.601932683545	102
5	1292	71.601932683545	103
5	1317	73.04662788179	104
5	1317	73.04662788179	105
5	1344	74.093269870942	106
5	1344	74.093269870942	107
5	1373	75.693363421986	108
5	1373	75.693363421986	109
5	1392	77.581540614574	110
5	1392	77.581540614574	111
5	1420	78.891907897104	112
5	1420	78.891907897104	113
5	1448	80.287552521065	114
5	1448	80.287552521065	115
5	1473	81.521603405235	116
5	1473	81.521603405235	117
5	1494	82.572088772576	118
5	1494	82.572088772576	119
5	1523	83.954704342329	120
5	1523	83.954704342329	121
5	1548	85.251154031652	122
5	1548	85.251154031652	123
5	1573	86.340571983531	124
5	1573	86.340571983531	125
5	1591	87.52841237409	126
5	1591	87.52841237409	127
5	1620	88.794624179331	128
5	1620	88.794624179331	129
5	1644	90.027785454882	130
5	1644	90.027785454882	131
5	1670	91.797362090924	132
5	1670	91.797362090924	133
5	1690	92.902884959702	134
5	1690	92.902884959702	135
5	1719	94.624322626894	136
5	1719	94.624322626894	137
5	1741	96.183853950004	138
5	1741	96.183853950004	139
5	1767	97.550186980005	140
5	1767	97.550186980005	141
5	1790	99.094480621214	142
5	1790	99.094480621214	143
5	1816	100.786191890659	144
5	1816	100.786191890659	145
5	1848	102.736251419037	146
5	1848	102.736251419037	147
5	1873	104.637053175421	148
5	1873	104.637053175421	149
5	1898	106.327360743025	150
5	1898	106.327360743025	151
5	1915	107.756358015975	152
5	1915	107.756358015975	153
5	1945	109.453777497251	154
5	1945	109.453777497251	155
5	1966	110.820474067628	156
5	1966	110.820474067628	157
5	1991	111.897601459817	158
5	1991	111.897601459817	159
5	2016	113.442283818867	160
5	2016	113.442283818867	161
5	2041	114.611695841611	162
5	2041	114.611695841611	163
5	2073	116.007229494733	164
5	2073	116.007229494733	165
5	2094	117.308092919179	166
5	2094	117.308092919179	167
5	2119	119.145128221436	168
5	2119	119.145128221436	169
5	2145	120.670575005615	170
5	2145	120.670575005615	171
5	2169	121.678942338498	172
5	2169	121.678942338498	173
5	2198	123.331721630313	174
5	2198	123.331721630313	175
5	2216	124.441669489547	176
5	2216	124.441669489547	177
5	2248	126.276373794215	178
5	2248	126.276373794215	179
5	2273	127.369463783222	180
5	2273	127.369463783222	181
5	2298	129.162771136804	182
5	2298	129.162771136804	183
5	2320	131.027945876711	184
5	2320	131.027945876711	185
5	2348	132.798853693233	186
5	2348	132.798853693233	187
5	2366	134.291692084316	188
5	2366	134.291692084316	189
5	2390	136.130701596084	190
5	2390	136.130701596084	191
5	2423	138.14687299685	192
5	2423	138.14687299685	193
5	2448	140.008565825631	194
5	2448	140.008565825631	195
5	2473	141.685173750477	196
5	2473	141.685173750477	197
5	2494	143.440559949433	198
5	2494	143.440559949433	199
5	2520	144.768851941629	200
5	2520	144.768851941629	201
5	2544	146.133303615153	202
5	2544	146.133303615153	203
5	2570	148.128209144941	204
5	2570	148.128209144941	205
5	2590	149.345329792894	206
5	2590	149.345329792894	207
5	2612	150.597667289911	208
5	2612	150.597667289911	209
5	2645	152.39598594582	210
5	2645	152.39598594582	211
5	2667	153.943320207598	212
5	2667	153.943320207598	213
5	2695	155.451623015063	214
5	2695	155.451623015063	215
5	2723	156.990209486917	216
5	2723	156.990209486917	217
5	2744	158.35682302071	218
5	2744	158.35682302071	219
5	2766	159.817130686956	220
5	2766	159.817130686956	221
5	2798	161.263088106719	222
5	2798	161.263088106719	223
5	2820	162.483565302982	224
5	2820	162.483565302982	225
5	2845	163.758865286487	226
5	2845	163.758865286487	227
5	2869	165.611055094378	228
5	2869	165.611055094378	229
5	2898	167.525749731442	230
5	2898	167.525749731442	231
5	2916	168.708362655177	232
5	2916	168.708362655177	233
5	2948	170.039608746049	234
5	2948	170.039608746049	235
5	2966	171.082547954411	236
5	2966	171.082547954411	237
5	2994	172.763645625979	238
5	2994	172.763645625979	239
5	3018	174.207311601759	240
5	3018	174.207311601759	241
5	3048	175.311955875962	242
5	3048	175.311955875962	243
5	3073	177.099919213957	244
5	3073	177.099919213957	245
5	3090	178.089632735274	246
5	3090	178.089632735274	247
5	3115	179.932905342465	248
5	3115	179.932905342465	249
5	3140	181.140696409639	250
5	3140	181.140696409639	251
5	3169	182.736013561593	252
5	3169	182.736013561593	253
5	3195	184.626069064588	254
5	3195	184.626069064588	255
5	3220	185.754400761701	256
5	3220	185.754400761701	257
5	3248	187.618552481166	258
5	3248	187.618552481166	259
5	3270	189.141224158804	260
5	3270	189.141224158804	261
5	3298	190.843297283154	262
5	3298	190.843297283154	263
5	3323	192.701832307644	264
5	3323	192.701832307644	265
5	3348	194.426295052751	266
5	3348	194.426295052751	267
5	3369	195.806269401661	268
5	3369	195.806269401661	269
5	3398	197.12913339863	270
5	3398	197.12913339863	271
5	3419	198.124370342173	272
5	3419	198.124370342173	273
5	3448	199.96634820997	274
5	3448	199.96634820997	275
5	3470	201.81359373607	276
5	3470	201.81359373607	277
5	3495	203.351269534593	278
5	3495	203.351269534593	279
5	3520	204.827688871936	280
5	3520	204.827688871936	281
5	3544	206.117293863701	282
5	3544	206.117293863701	283
5	3569	207.828213619663	284
5	3569	207.828213619663	285
5	3598	209.524391489053	286
5	3598	209.524391489053	287
5	3623	211.52534374924	288
5	3623	211.52534374924	289
5	3644	212.537190189891	290
5	3644	212.537190189891	291
5	3670	213.64457962734	292
5	3670	213.64457962734	293
5	3698	215.228856851825	294
5	3698	215.228856851825	295
5	3723	217.100304630881	296
5	3723	217.100304630881	297
5	3745	218.841918132379	298
5	3745	218.841918132379	299
5	3770	220.379992920619	300
5	3770	220.379992920619	301
5	3794	222.333714249771	302
5	3794	222.333714249771	303
5	3823	224.136380341179	304
5	3823	224.136380341179	305
5	3845	225.78078842838	306
5	3845	225.78078842838	307
5	3873	227.363920972024	308
5	3873	227.363920972024	309
5	3894	228.930949931744	310
5	3894	228.930949931744	311
5	3921	230.001005088329	312
5	3921	230.001005088329	313
5	3945	230.984852245014	314
5	3945	230.984852245014	315
5	3973	232.401413870821	316
5	3973	232.401413870821	317
5	3998	233.534262115052	318
5	3998	233.534262115052	319
5	4015	234.977282710528	320
5	4015	234.977282710528	321
5	4044	236.49283083466	322
5	4044	236.49283083466	323
5	4073	238.327159566998	324
5	4073	238.327159566998	325
5	4095	239.344307567426	326
5	4095	239.344307567426	327
6	20	0.160303288526	0
6	20	0.160303288526	1
6	20	0.160303288526	2
6	41	1.315865867571	3
6	41	1.315865867571	4
6	41	1.315865867571	5
6	69	2.834911031727	6
6	69	2.834911031727	7
6	69	2.834911031727	8
6	88	4.40477281872	9
6	88	4.40477281872	10
6	88	4.40477281872	11
6	122	5.623002196802	12
6	122	5.623002196802	13
6	122	5.623002196802	14
6	145	7.403103250102	15
6	145	7.403103250102	16
6	145	7.403103250102	17
6	166	8.545364751732	18
6	166	8.545364751732	19
6	166	8.545364751732	20
6	191	9.571217461582	21
6	191	9.571217461582	22
6	191	9.571217461582	23
6	219	11.536361847166	24
6	219	11.536361847166	25
6	219	11.536361847166	26
6	245	13.125926593401	27
6	245	13.125926593401	28
6	245	13.125926593401	29
6	269	14.630729428809	30
6	269	14.630729428809	31
6	269	14.630729428809	32
6	291	15.854173394778	33
6	291	15.854173394778	34
6	291	15.854173394778	35
6	311	16.894096127782	36
6	311	16.894096127782	37
6	311	16.894096127782	38
6	341	17.931945704219	39
6	341	17.931945704219	40
6	341	17.931945704219	41
6	365	19.207602769204	42
6	365	19.207602769204	43
6	365	19.207602769204	44
6	387	20.210000216406	45
6	387	20.210000216406	46
6	387	20.210000216406	47
6	415	21.254604920985	48
6	415	21.254604920985	49
6	415	21.254604920985	50
6	445	22.618324855314	51
6	445	22.618324855314	52
6	445	22.618324855314	53
6	465	23.970832846506	54
6	465	23.970832846506	55
6	465	23.970832846506	56
6	497	25.879943213824	57
6	497	25.879943213824	58
6	497	25.879943213824	59
6	516	27.203268381734	60
6	516	27.203268381734	61
6	516	27.203268381734	62
6	544	28.374473973292	63
6	544	28.374473973292	64
6	544	28.374473973292	65
6	570	29.497290327415	66
6	570	29.497290327415	67
6	570	29.497290327415	68
6	589	30.844088462809	69
6	589	30.844088462809	70
6	589	30.844088462809	71
6	622	32.233131692936	72
6	622	32.233131692936	73
6	622	32.233131692936	74
6	641	33.417122651963	75
6	641	33.417122651963	76
6	641	33.417122651963	77
6	670	35.095609407165	78
6	670	35.095609407165	79
6	670	35.095609407165	80
6	691	36.84250447951	81
6	691	36.84250447951	82
6	691	36.84250447951	83
6	722	38.266942695515	84
6	722	38.266942695515	85
6	722	38.266942695515	86
6	740	39.571257431727	87
6	740	39.571257431727	88
6	740	39.571257431727	89
6	765	40.897341499477	90
6	765	40.897341499477	91
6	765	40.897341499477	92
6	791	42.102998095004	93
6	791	42.102998095004	94
6	791	42.102998095004	95
6	819	43.363377102394	96
6	819	43.363377102394	97
6	819	43.363377102394	98
6	847	45.002661130384	99
6	847	45.002661130384	100
6	847	45.002661130384	101
6	865	46.380289681356	102
6	865	46.380289681356	103
6	865	46.380289681356	104
6	891	48.006534512929	105
6	891	48.006534512929	106
6	891	48.006534512929	107
6	919	49.550418037971	108
6	919	49.550418037971	109
6	919	49.550418037971	110
6	943	51.41947454872	111
6	943	51.41947454872	112
6	943	51.41947454872	113
6	966	53.312826654041	114
6	966	53.312826654041	115
6	966	53.312826654041	116
6	994	54.359414994921	117
6	994	54.359414994921	118
6	994	54.359414994921	119
6	1015	55.964261860445	120
6	1015	55.964261860445	121
6	1015	55.964261860445	122
6	1040	57.658032124944	123
6	1040	57.658032124944	124
6	1040	57.658032124944	125
6	1065	59.473586630237	126
6	1065	59.473586630237	127
6	1065	59.473586630237	128
6	1090	60.638085002631	129
6	1090	60.638085002631	130
6	1090	60.638085002631	131
6	1122	61.921553121386	132
6	1122	61.921553121386	133
6	1122	61.921553121386	134
6	1142	63.110265030748	135
6	1142	63.110265030748	136
6	1142	63.110265030748	137
6	1165	64.378524467852	138
6	1165	64.378524467852	139
6	1165	64.378524467852	140
6	1197	65.95879313924	141
6	1197	65.95879313924	142
6	1197	65.95879313924	143
6	1216	67.391820939056	144
6	1216	67.391820939056	145
6	1216	67.391820939056	146
6	1240	68.648808472256	147
6	1240	68.648808472256	148
6	1240	68.648808472256	149
6	1269	70.095531247677	150
6	1269	70.095531247677	151
6	1269	70.095531247677	152
6	1291	71.597023279715	153
6	1291	71.597023279715	154
6	1291	71.597023279715	155
6	1316	73.046550856116	156
6	1316	73.046550856116	157
6	1316	73.046550856116	158
6	1347	74.110608420846	159
6	1347	74.110608420846	160
6	1347	74.110608420846	161
6	1369	75.681979958467	162
6	1369	75.681979958467	163
6	1369	75.681979958467	164
6	1391	77.578152816283	165
6	1391	77.578152816283	166
6	1391	77.578152816283	167
6	1419	78.889334575718	168
6	1419	78.889334575718	169
6	1419	78.889334575718	170
6	1441	80.2744883132	171
6	1441	80.2744883132	172
6	1441	80.2744883132	173
6	1462	81.498413540425	174
6	1462	81.498413540425	175
6	1462	81.498413540425	176
6	1495	82.581942051101	177
6	1495	82.581942051101	178
6	1495	82.581942051101	179
6	1515	83.904998699016	180
6	1515	83.904998699016	181
6	1515	83.904998699016	182
6	1537	85.219499418112	183
6	1537	85.219499418112	184
6	1537	85.219499418112	185
6	1566	86.321193710802	186
6	1566	86.321193710802	187
6	1566	86.321193710802	188
6	1597	87.540095819726	189
6	1597	87.540095819726	190
6	1597	87.540095819726	191
6	1619	88.792782130773	192
6	1619	88.792782130773	193
6	1619	88.792782130773	194
6	1647	90.039974304963	195
6	1647	90.039974304963	196
6	1647	90.039974304963	197
6	1669	91.796279531161	198
6	1669	91.796279531161	199
6	1669	91.796279531161	200
6	1691	92.907983568379	201
6	1691	92.907983568379	202
6	1691	92.907983568379	203
6	1720	94.626104825288	204
6	1720	94.626104825288	205
6	1720	94.626104825288	206
6	1742	96.186555705359	207
6	1742	96.186555705359	208
6	1742	96.186555705359	209
6	1766	97.54710752637	210
6	1766	97.54710752637	211
6	1766	97.54710752637	212
6	1791	99.0979245507	213
6	1791	99.0979245507	214
6	1791	99.0979245507	215
6	1815	100.783756022897	216
6	1815	100.783756022897	217
6	1815	100.783756022897	218
6	1840	102.715803911335	219
6	1840	102.715803911335	220
6	1840	102.715803911335	221
6	1866	104.616511861109	222
6	1866	104.616511861109	223
6	1866	104.616511861109	224
6	1891	106.296369274567	225
6	1891	106.296369274567	226
6	1891	106.296369274567	227
6	1916	107.761222896076	228
6	1916	107.761222896076	229
6	1916	107.761222896076	230
6	1944	109.452737542423	231
6	1944	109.452737542423	232
6	1944	109.452737542423	233
6	1970	110.824300428339	234
6	1970	110.824300428339	235
6	1970	110.824300428339	236
6	1990	111.89292187818	237
6	1990	111.89292187818	238
6	1990	111.89292187818	239
6	2015	113.441167708371	240
6	2015	113.441167708371	241
6	2015	113.441167708371	242
6	2040	114.606964459171	243
6	2040	114.606964459171	244
6	2040	114.606964459171	245
6	2061	115.967842966594	246
6	2061	115.967842966594	247
6	2061	115.967842966594	248
6	2095	117.310124028339	249
6	2095	117.310124028339	250
6	2095	117.310124028339	251
6	2122	119.17810336045	252
6	2122	119.17810336045	253
6	2122	119.17810336045	254
6	2141	120.663268897378	255
6	2141	120.663268897378	256
6	2141	120.663268897378	257
6	2170	121.678968248915	258
6	2170	121.678968248915	259
6	2170	121.678968248915	260
6	2190	123.304400755579	261
6	2190	123.304400755579	262
6	2190	123.304400755579	263
6	2217	124.442300010241	264
6	2217	124.442300010241	265
6	2217	124.442300010241	266
6	2244	126.262945006894	267
6	2244	126.262945006894	268
6	2244	126.262945006894	269
6	2266	127.344181173851	270
6	2266	127.344181173851	271
6	2266	127.344181173851	272
6	2294	129.128741008127	273
6	2294	129.128741008127	274
6	2294	129.128741008127	275
6	2316	131.024934473783	276
6	2316	131.024934473783	277
6	2316	131.024934473783	278
6	2339	132.771190797524	279
6	2339	132.771190797524	280
6	2339	132.771190797524	281
6	2372	134.309937319511	282
6	2372	134.309937319511	283
6	2372	134.309937319511	284
6	2391	136.135979306346	285
6	2391	136.135979306346	286
6	2391	136.135979306346	287
6	2415	138.10852927269	288
6	2415	138.10852927269	289
6	2415	138.10852927269	290
6	2440	139.986462143337	291
6	2440	139.986462143337	292
6	2440	139.986462143337	293
6	2465	141.644162776991	294
6	2465	141.644162776991	295
6	2465	141.644162776991	296
6	2497	143.458925345306	297
6	2497	143.458925345306	298
6	2497	143.458925345306	299
6	2516	144.759424202538	300
6	2516	144.759424202538	301
6	2516	144.759424202538	302
6	2547	146.148433956189	303
6	2547	146.148433956189	304
6	2547	146.148433956189	305
6	2566	148.122829200795	306
6	2566	148.122829200795	307
6	2566	148.122829200795	308
6	2597	149.377418793712	309
6	2597	149.377418793712	310
6	2597	149.377418793712	311
6	2620	150.61332012392	312
6	2620	150.61332012392	313
6	2620	150.61332012392	314
6	2641	152.391679234022	315
6	2641	152.391679234022	316
6	2641	152.391679234022	317
6	2672	153.979396808542	318
6	2672	153.979396808542	319
6	2672	153.979396808542	320
6	2694	155.44720509518	321
6	2694	155.44720509518	322
6	2694	155.44720509518	323
6	2716	156.977813298897	324
6	2716	156.977813298897	325
6	2716	156.977813298897	326
6	2745	158.360054014878	327
6	2745	158.360054014878	328
6	2745	158.360054014878	329
6	2765	159.815521794545	330
6	2765	159.815521794545	331
6	2765	159.815521794545	332
6	2791	161.251400654249	333
6	2791	161.251400654249	334
6	2791	161.251400654249	335
6	2816	162.478240382746	336
6	2816	162.478240382746	337
6	2816	162.478240382746	338
6	2841	163.750855873714	339
6	2841	163.750855873714	340
6	2841	163.750855873714	341
6	2870	165.614163547749	342
6	2870	165.614163547749	343
6	2870	165.614163547749	344
6	2894	167.507984438423	345
6	2894	167.507984438423	346
6	2894	167.507984438423	347
6	2918	168.715691811772	348
6	2918	168.715691811772	349
6	2918	168.715691811772	350
6	2940	170.01478595278	351
6	2940	170.01478595278	352
6	2940	170.01478595278	353
6	2972	171.112260645928	354
6	2972	171.112260645928	355
6	2972	171.112260645928	356
6	2995	172.766135122995	357
6	2995	172.766135122995	358
6	2995	172.766135122995	359
6	3017	174.205033735904	360
6	3017	174.205033735904	361
6	3017	174.205033735904	362
6	3040	175.281771326148	363
6	3040	175.281771326148	364
6	3040	175.281771326148	365
6	3066	177.079437739489	366
6	3066	177.079437739489	367
6	3066	177.079437739489	368
6	3092	178.094730855299	369
6	3092	178.094730855299	370
6	3092	178.094730855299	371
6	3116	179.933324048892	372
6	3116	179.933324048892	373
6	3116	179.933324048892	374
6	3142	181.147018391449	375
6	3142	181.147018391449	376
6	3142	181.147018391449	377
6	3172	182.758412994527	378
6	3172	182.758412994527	379
6	3172	182.758412994527	380
6	3191	184.623292725315	381
6	3191	184.623292725315	382
6	3191	184.623292725315	383
6	3216	185.751211691225	384
6	3216	185.751211691225	385
6	3216	185.751211691225	386
6	3241	187.59732779188	387
6	3241	187.59732779188	388
6	3241	187.59732779188	389
6	3269	189.138781988931	390
6	3269	189.138781988931	391
6	3269	189.138781988931	392
6	3294	190.827931774454	393
6	3294	190.827931774454	394
6	3294	190.827931774454	395
6	3316	192.667065973536	396
6	3316	192.667065973536	397
6	3316	192.667065973536	398
6	3344	194.396523767177	399
6	3344	194.396523767177	400
6	3344	194.396523767177	401
6	3370	195.80628259617	402
6	3370	195.80628259617	403
6	3370	195.80628259617	404
6	3391	197.113122777235	405
6	3391	197.113122777235	406
6	3391	197.113122777235	407
6	3420	198.134248260473	408
6	3420	198.134248260473	409
6	3420	198.134248260473	410
6	3436	199.94205916465	411
6	3436	199.94205916465	412
6	3436	199.94205916465	413
6	3469	201.807733337172	414
6	3469	201.807733337172	415
6	3469	201.807733337172	416
6	3494	203.343944797359	417
6	3494	203.343944797359	418
6	3494	203.343944797359	419
6	3519	204.819906910144	420
6	3519	204.819906910144	421
6	3519	204.819906910144	422
6	3547	206.160529496469	423
6	3547	206.160529496469	424
6	3547	206.160529496469	425
6	3570	207.82821546342	426
6	3570	207.82821546342	427
6	3570	207.82821546342	428
6	3590	209.510595895618	429
6	3590	209.510595895618	430
6	3590	209.510595895618	431
6	3612	211.485801380208	432
6	3612	211.485801380208	433
6	3612	211.485801380208	434
6	3647	212.553415061239	435
6	3647	212.553415061239	436
6	3647	212.553415061239	437
6	3669	213.644355620313	438
6	3669	213.644355620313	439
6	3669	213.644355620313	440
6	3691	215.214119362095	441
6	3691	215.214119362095	442
6	3691	215.214119362095	443
6	3715	217.071866679453	444
6	3715	217.071866679453	445
6	3715	217.071866679453	446
6	3744	218.839787554114	447
6	3744	218.839787554114	448
6	3744	218.839787554114	449
6	3766	220.370698408053	450
6	3766	220.370698408053	451
6	3766	220.370698408053	452
6	3797	222.345816982154	453
6	3797	222.345816982154	454
6	3797	222.345816982154	455
6	3819	224.120897094618	456
6	3819	224.120897094618	457
6	3819	224.120897094618	458
6	3844	225.780439551781	459
6	3844	225.780439551781	460
6	3844	225.780439551781	461
6	3866	227.339508844928	462
6	3866	227.339508844928	463
6	3866	227.339508844928	464
6	3895	228.933288061436	465
6	3895	228.933288061436	466
6	3895	228.933288061436	467
6	3913	229.990158581468	468
6	3913	229.990158581468	469
6	3913	229.990158581468	470
6	3944	230.982430020498	471
6	3944	230.982430020498	472
6	3944	230.982430020498	473
6	3966	232.379939621143	474
6	3966	232.379939621143	475
6	3966	232.379939621143	476
6	3994	233.5236058094	477
6	3994	233.5236058094	478
6	3994	233.5236058094	479
6	4016	234.98167958103	480
6	4016	234.98167958103	481
6	4016	234.98167958103	482
6	4047	236.504992854006	483
6	4047	236.504992854006	484
6	4047	236.504992854006	485
6	4065	238.311701284069	486
6	4065	238.311701284069	487
6	4065	238.311701284069	488
6	4094	239.337288524613	489
6	4094	239.337288524613	490
6	4094	239.337288524613	491
7	22	0.164941760066	0
7	25	0.170303288526	1
7	48	1.325865867571	2
7	50	1.332227663286	3
7	73	2.844911031727	4
7	75	2.851193081297	5
7	93	4.41477281872	6
7	100	4.462539931216	7
7	121	5.598976637739	8
7	125	5.633002196802	9
7	147	7.407151899224	10
7	150	7.413103250102	11
7	172	8.555364751732	12
7	175	8.580813065938	13
7	197	9.581217461582	14
7	200	9.592163767655	15
7	223	11.546361847166	16
7	225	11.546817641987	17
7	247	13.131841522747	18
7	250	13.135926593401	19
7	273	14.640729428809	20
7	275	14.645076030917	21
7	298	15.864173394778	22
7	300	15.870363517089	23
7	315	16.904096127782	24
7	325	16.934787079506	25
7	348	17.941945704219	26
7	350	17.944903712709	27
7	369	19.217602769204	28
7	375	19.23763598207	29
7	392	20.220000216406	30
7	400	20.239201073469	31
7	419	21.264604920985	32
7	425	21.291983263058	33
7	447	22.626771885844	34
7	450	22.628324855314	35
7	468	23.980832846506	36
7	475	24.030210842869	37
7	496	25.862366981017	38
7	500	25.889943213824	39
7	523	27.213268381734	40
7	525	27.213729040154	41
7	548	28.384473973292	42
7	550	28.385446478744	43
7	572	29.504427783171	44
7	575	29.507290327415	45
7	597	30.854088462809	46
7	600	30.867884146658	47
7	621	32.226567126376	48
7	625	32.243131692936	49
7	643	33.424723070239	50
7	646	33.427122651963	51
7	672	35.104416554901	52
7	675	35.105609407165	53
7	698	36.85250447951	54
7	700	36.859114689724	55
7	721	38.261419505322	56
7	725	38.276942695515	57
7	744	39.581257431727	58
7	750	39.592445692886	59
7	769	40.901473029375	60
7	775	40.907341499477	61
7	798	42.112998095004	62
7	800	42.119871093329	63
7	823	43.373377102394	64
7	825	43.375979429319	65
7	846	44.997561909656	66
7	850	45.012661130384	67
7	868	46.390289681356	68
7	875	46.423999142134	69
7	898	48.016534512929	70
7	900	48.023669788554	71
7	923	49.560418037971	72
7	925	49.568546367497	73
7	945	51.424483141587	74
7	950	51.42947454872	75
7	968	53.313685531845	76
7	971	53.322826654041	77
7	998	54.369414994921	78
7	1000	54.376866758709	79
7	1019	55.974261860445	80
7	1025	56.003670647463	81
7	1044	57.668032124944	82
7	1050	57.684197032779	83
7	1069	59.483586630237	84
7	1075	59.499920972248	85
7	1094	60.648085002631	86
7	1100	60.669223398047	87
7	1121	61.909507278115	88
7	1125	61.931553121386	89
7	1147	63.11483528163	90
7	1150	63.120265030748	91
7	1169	64.388524467852	92
7	1175	64.428274623288	93
7	1196	65.955597106397	94
7	1200	65.96879313924	95
7	1221	67.401820939056	96
7	1223	67.401919658572	97
7	1244	68.658808472256	98
7	1250	68.691859378121	99
7	1273	70.105531247677	100
7	1275	70.109509392433	101
7	1298	71.607023279715	102
7	1300	71.611932683545	103
7	1323	73.056550856116	104
7	1325	73.05662788179	105
7	1346	74.103269870942	106
7	1350	74.120608420846	107
7	1372	75.691979958467	108
7	1375	75.703363421986	109
7	1398	77.588152816283	110
7	1400	77.591540614574	111
7	1423	78.899334575718	112
7	1425	78.901907897104	113
7	1447	80.2844883132	114
7	1450	80.297552521065	115
7	1468	81.508413540425	116
7	1475	81.531603405235	117
7	1497	82.582088772576	118
7	1500	82.591942051101	119
7	1518	83.914998699016	120
7	1525	83.964704342329	121
7	1543	85.229499418112	122
7	1550	85.261154031652	123
7	1572	86.331193710802	124
7	1575	86.350571983531	125
7	1596	87.53841237409	126
7	1600	87.550095819726	127
7	1623	88.802782130773	128
7	1625	88.804624179331	129
7	1646	90.037785454882	130
7	1650	90.049974304963	131
7	1673	91.806279531161	132
7	1675	91.807362090924	133
7	1693	92.912884959702	134
7	1697	92.917983568379	135
7	1722	94.634322626894	136
7	1725	94.636104825288	137
7	1747	96.193853950004	138
7	1750	96.196555705359	139
7	1773	97.55710752637	140
7	1775	97.560186980005	141
7	1794	99.104480621214	142
7	1797	99.1079245507	143
7	1819	100.793756022897	144
7	1821	100.796191890659	145
7	1844	102.725803911335	146
7	1850	102.746251419037	147
7	1872	104.626511861109	148
7	1875	104.647053175421	149
7	1897	106.306369274567	150
7	1900	106.337360743025	151
7	1918	107.766358015975	152
7	1921	107.771222896076	153
7	1948	109.462737542423	154
7	1950	109.463777497251	155
7	1972	110.830474067628	156
7	1975	110.834300428339	157
7	1994	111.90292187818	158
7	1996	111.907601459817	159
7	2019	113.451167708371	160
7	2021	113.452283818867	161
7	2044	114.616964459171	162
7	2047	114.621695841611	163
7	2065	115.977842966594	164
7	2075	116.017229494733	165
7	2097	117.318092919179	166
7	2100	117.320124028339	167
7	2121	119.155128221436	168
7	2125	119.18810336045	169
7	2148	120.673268897378	170
7	2150	120.680575005615	171
7	2172	121.688942338498	172
7	2175	121.688968248915	173
7	2194	123.314400755579	174
7	2200	123.341721630313	175
7	2222	124.451669489547	176
7	2225	124.452300010241	177
7	2247	126.272945006894	178
7	2250	126.286373794215	179
7	2272	127.354181173851	180
7	2275	127.379463783222	181
7	2297	129.138741008127	182
7	2300	129.172771136804	183
7	2323	131.034934473783	184
7	2325	131.037945876711	185
7	2347	132.781190797524	186
7	2350	132.808853693233	187
7	2371	134.301692084316	188
7	2375	134.319937319511	189
7	2394	136.140701596084	190
7	2397	136.145979306346	191
7	2418	138.11852927269	192
7	2425	138.15687299685	193
7	2444	139.996462143337	194
7	2450	140.018565825631	195
7	2469	141.654162776991	196
7	2475	141.695173750477	197
7	2496	143.450559949433	198
7	2500	143.468925345306	199
7	2523	144.769424202538	200
7	2525	144.778851941629	201
7	2546	146.143303615153	202
7	2550	146.158433956189	203
7	2573	148.132829200795	204
7	2575	148.138209144941	205
7	2592	149.355329792894	206
7	2600	149.387418793712	207
7	2616	150.607667289911	208
7	2625	150.62332012392	209
7	2648	152.401679234022	210
7	2650	152.40598594582	211
7	2671	153.953320207598	212
7	2675	153.989396808542	213
7	2698	155.45720509518	214
7	2700	155.461623015063	215
7	2722	156.987813298897	216
7	2725	157.000209486917	217
7	2747	158.36682302071	218
7	2750	158.370054014878	219
7	2770	159.825521794545	220
7	2772	159.827130686956	221
7	2797	161.261400654249	222
7	2800	161.273088106719	223
7	2823	162.488240382746	224
7	2825	162.493565302982	225
7	2848	163.760855873714	226
7	2850	163.768865286487	227
7	2872	165.621055094378	228
7	2875	165.624163547749	229
7	2897	167.517984438423	230
7	2900	167.535749731442	231
7	2920	168.718362655177	232
7	2925	168.725691811772	233
7	2943	170.02478595278	234
7	2950	170.049608746049	235
7	2971	171.092547954411	236
7	2975	171.122260645928	237
7	2997	172.773645625979	238
7	3000	172.776135122995	239
7	3023	174.215033735904	240
7	3025	174.217311601759	241
7	3044	175.291771326148	242
7	3050	175.321955875962	243
7	3072	177.089437739489	244
7	3075	177.109919213957	245
7	3094	178.099632735274	246
7	3100	178.104730855299	247
7	3119	179.942905342465	248
7	3122	179.943324048892	249
7	3144	181.150696409639	250
7	3150	181.157018391449	251
7	3171	182.746013561593	252
7	3175	182.768412994527	253
7	3198	184.633292725315	254
7	3200	184.636069064588	255
7	3223	185.761211691225	256
7	3225	185.764400761701	257
7	3247	187.60732779188	258
7	3250	187.628552481166	259
7	3273	189.148781988931	260
7	3275	189.151224158804	261
7	3297	190.837931774454	262
7	3300	190.853297283154	263
7	3322	192.677065973536	264
7	3325	192.711832307644	265
7	3347	194.406523767177	266
7	3350	194.436295052751	267
7	3372	195.816269401661	268
7	3375	195.81628259617	269
7	3397	197.123122777235	270
7	3400	197.13913339863	271
7	3422	198.134370342173	272
7	3425	198.144248260473	273
7	3440	199.95205916465	274
7	3450	199.97634820997	275
7	3473	201.817733337172	276
7	3475	201.82359373607	277
7	3498	203.353944797359	278
7	3500	203.361269534593	279
7	3523	204.829906910144	280
7	3525	204.837688871936	281
7	3546	206.127293863701	282
7	3550	206.170529496469	283
7	3572	207.838213619663	284
7	3575	207.83821546342	285
7	3594	209.520595895618	286
7	3600	209.534391489053	287
7	3618	211.495801380208	288
7	3625	211.53534374924	289
7	3646	212.547190189891	290
7	3650	212.563415061239	291
7	3673	213.654355620313	292
7	3675	213.65457962734	293
7	3697	215.224119362095	294
7	3700	215.238856851825	295
7	3719	217.081866679453	296
7	3725	217.110304630881	297
7	3748	218.849787554114	298
7	3750	218.851918132379	299
7	3773	220.380698408053	300
7	3775	220.389992920619	301
7	3796	222.343714249771	302
7	3800	222.355816982154	303
7	3822	224.130897094618	304
7	3825	224.146380341179	305
7	3848	225.790439551781	306
7	3850	225.79078842838	307
7	3872	227.349508844928	308
7	3875	227.373920972024	309
7	3897	228.940949931744	310
7	3900	228.943288061436	311
7	3920	230.000158581468	312
7	3925	230.011005088329	313
7	3948	230.992430020498	314
7	3950	230.994852245014	315
7	3972	232.389939621143	316
7	3975	232.411413870821	317
7	3997	233.5336058094	318
7	4000	233.544262115052	319
7	4018	234.987282710528	320
7	4021	234.99167958103	321
7	4046	236.50283083466	322
7	4050	236.514992854006	323
7	4069	238.321701284069	324
7	4075	238.337159566998	325
7	4098	239.347288524613	326
7	4100	239.354307567426	327

