version 2
run General-1-20231004-18:51:09-10516
attr configname General
attr datetime 20231004-18:51:09
attr experiment General
attr inifile omnetpp.ini
attr iterationvars ""
attr iterationvarsf ""
attr measurement ""
attr network Multihop
attr processid 10516
attr repetition 1
attr replication #1
attr resultdir results
attr runnumber 1
attr seedset 1
param Multihop.node[*].transmissionTime "uniform(1s, 2s)"
param Multihop.node[*].delayTime "uniform(0.01s, 0.2s)"
param Multihop.node[*].processingTime exponential(0.01s)
param Multihop.node[0].lossProbability 0
param Multihop.node[1].lossProbability 0.4
param Multihop.node[2].lossProbability 0.5
param Multihop.node[3].lossProbability 0.6
param Multihop.node[4].lossProbability 0.7
param Multihop.node[5].lossProbability 0.8

vector 0 Multihop.node[0] txVector ETV
vector 1 Multihop.node[1] txVector ETV
vector 2 Multihop.node[2] txVector ETV
vector 3 Multihop.node[3] txVector ETV
vector 4 Multihop.node[4] txVector ETV
vector 5 Multihop.node[5] rxVector ETV
0	1	0.089234179703	0
0	5	2.086418987836	1
0	7	3.214543435608	2
0	9	5.213583951003	3
0	11	6.449672927267	4
0	13	7.846253653408	5
0	15	9.234164393625	6
0	17	10.903910433992	7
0	21	12.839449506604	8
0	25	14.152723019595	9
0	29	15.596175913351	10
0	33	17.130589820562	11
0	37	18.587794629742	12
0	39	20.526922424675	13
0	45	22.305311660168	14
0	53	23.398112470403	15
0	55	25.227715835094	16
0	57	26.500765812469	17
0	61	27.560009009556	18
0	67	29.153074526346	19
0	71	30.350625419874	20
0	77	31.492745552795	21
0	85	32.526916862816	22
0	89	33.973051363487	23
0	95	35.046415537713	24
0	97	36.949785709033	25
0	99	38.069276182797	26
0	101	39.59407556581	27
0	105	40.67769857112	28
0	107	42.588146950935	29
0	111	43.887077061811	30
0	115	45.452989090353	31
0	121	47.409524749152	32
0	127	48.942973242027	33
0	129	50.483573750478	34
0	135	52.249058857678	35
0	143	54.041462436902	36
0	145	55.489442619846	37
0	149	57.381578488393	38
0	151	58.920003183071	39
0	155	60.572302061251	40
0	163	62.143310623361	41
0	167	63.791060019169	42
0	169	65.554293076392	43
0	173	66.910824793275	44
0	181	68.79216662224	45
0	185	70.579118096154	46
0	189	71.934428459383	47
0	191	73.314231749508	48
0	197	75.077151816688	49
0	201	76.849890960032	50
0	207	78.428524891963	51
0	213	79.899165697047	52
0	221	81.168166746735	53
0	223	82.640641788138	54
0	229	84.383406615235	55
0	239	85.613769419376	56
0	241	86.786047776347	57
0	243	88.182361064596	58
0	245	89.289726372925	59
0	247	90.799536651117	60
0	253	91.901671883534	61
0	257	93.869339809171	62
0	259	95.102962336852	63
0	265	96.194518777192	64
0	267	97.562362017691	65
0	271	99.37535698933	66
0	275	101.092748591326	67
0	281	102.519658414995	68
0	283	103.948040824499	69
0	285	105.309945274027	70
0	287	106.463283758027	71
0	289	108.400474083958	72
0	291	110.316883957129	73
0	293	112.098842419799	74
0	299	113.715171362621	75
0	301	114.844940975423	76
0	307	116.139300447305	77
0	309	117.213269445229	78
0	313	118.365406602503	79
0	321	120.304118300437	80
0	329	121.602798543287	81
0	331	123.362147342529	82
0	333	125.013267907895	83
0	339	126.05295140983	84
0	341	127.508233879809	85
0	347	129.040060326108	86
0	355	130.548849064741	87
0	357	131.681116339402	88
0	359	133.445357951918	89
0	363	134.658091646736	90
0	367	135.753510891111	91
0	369	137.109974573017	92
0	373	138.205282384646	93
0	381	140.136295313132	94
0	383	141.460812813486	95
0	393	143.18882445374	96
0	395	144.61563529761	97
0	403	146.34419269429	98
0	409	147.547703012009	99
0	415	148.842214558623	100
0	421	150.294216165203	101
0	425	151.903423153446	102
0	427	153.258000387228	103
0	429	154.336520356708	104
0	433	156.029705554829	105
0	439	157.489250835613	106
0	441	158.961334261228	107
0	443	160.066725511453	108
0	445	161.569801421254	109
0	449	163.455491282162	110
0	459	164.7369680478	111
0	467	166.70269485272	112
0	473	167.829221011023	113
0	477	169.782052135444	114
0	481	171.030752335326	115
0	487	172.266020662035	116
0	493	173.457280932111	117
0	501	174.47315391188	118
0	505	176.340671366663	119
0	513	177.595374113997	120
0	517	179.012756907498	121
0	527	180.712640937767	122
0	531	182.613169484888	123
0	535	183.87737278908	124
0	537	185.237188983126	125
0	541	186.47740661574	126
0	543	188.0090747223	127
0	547	189.139269440318	128
0	553	190.307100239093	129
0	557	191.581000564037	130
0	565	192.800866862176	131
0	567	194.318460849462	132
0	569	195.334923613932	133
0	577	196.633723837905	134
0	585	197.717270184657	135
0	589	198.784302235464	136
1	3	0.126198958082	0
1	19	10.932638670661	1
1	23	12.856884403511	2
1	27	14.165331178094	3
1	31	15.630705578153	4
1	35	17.146223272875	5
1	41	20.549509196787	6
1	47	22.322612937219	7
1	59	26.521868452778	8
1	63	27.581145885834	9
1	69	29.166494214511	10
1	73	30.375918501461	11
1	79	31.512528011611	12
1	87	32.539428751371	13
1	91	33.989385789066	14
1	103	39.628948019757	15
1	109	42.606927009438	16
1	113	43.906594643063	17
1	117	45.466013379518	18
1	123	47.449469706254	19
1	131	50.494037810676	20
1	137	52.259361402128	21
1	147	55.504184091387	22
1	153	58.934485777025	23
1	157	60.592458655778	24
1	165	62.157679238306	25
1	171	65.578268180668	26
1	175	66.920942171412	27
1	183	68.802828739596	28
1	187	70.617563145833	29
1	193	73.338998098407	30
1	199	75.088811534023	31
1	203	76.85998144816	32
1	209	78.452989267197	33
1	215	79.926985328516	34
1	225	82.652773176744	35
1	231	84.400504413377	36
1	249	90.812943511798	37
1	255	91.914933602013	38
1	261	95.121403587858	39
1	269	97.575783541094	40
1	273	99.394848953944	41
1	277	101.116686735761	42
1	295	112.109209053789	43
1	303	114.859416585104	44
1	311	117.225032265897	45
1	315	118.380044971654	46
1	323	120.316404361428	47
1	335	125.040081348942	48
1	343	127.519391760795	49
1	349	129.052489328915	50
1	361	133.456129553616	51
1	365	134.669861471223	52
1	371	137.121520816016	53
1	375	138.223876391107	54
1	385	141.478209681398	55
1	397	144.639754923105	56
1	405	146.354273043333	57
1	411	147.559529647272	58
1	417	148.868734816196	59
1	423	150.304570859117	60
1	431	154.346648298345	61
1	435	156.072229171853	62
1	447	161.587445218338	63
1	451	163.469869894886	64
1	461	164.752588673779	65
1	469	166.742660840639	66
1	475	167.841685046253	67
1	479	169.811988576418	68
1	483	171.05763173983	69
1	489	172.284908388939	70
1	495	173.467790823571	71
1	503	174.49857928856	72
1	507	176.351529722711	73
1	515	177.609646467949	74
1	519	179.034713961428	75
1	529	180.722687679967	76
1	533	182.629468904832	77
1	539	185.247423396569	78
1	545	188.02731774107	79
1	549	189.154735259549	80
1	555	190.317200739698	81
1	559	191.591325343682	82
1	571	195.352704556224	83
1	579	196.644176660268	84
1	587	197.743971171669	85
2	43	20.575742410379	0
2	49	22.35263924199	1
2	65	27.596452562295	2
2	75	30.391237953006	3
2	81	31.533334823511	4
2	93	34.000396953953	5
2	119	45.478640223154	6
2	125	47.466263324491	7
2	133	50.50554564563	8
2	139	52.290827945397	9
2	159	60.603809008215	10
2	177	66.937835895939	11
2	195	73.35258430248	12
2	205	76.882327229634	13
2	211	78.469288975916	14
2	217	79.944999891989	15
2	227	82.66901520132	16
2	233	84.412843530434	17
2	251	90.825580022743	18
2	263	95.136815174021	19
2	279	101.132269623565	20
2	297	112.12983158077	21
2	305	114.872627528104	22
2	317	118.390558094963	23
2	325	120.366443899701	24
2	337	125.064460305451	25
2	345	127.530970385069	26
2	351	129.087311675474	27
2	377	138.252180056003	28
2	387	141.501558527701	29
2	399	144.654823446332	30
2	407	146.390357451252	31
2	413	147.569773615494	32
2	419	148.883329439701	33
2	437	156.086296609413	34
2	453	163.502530522042	35
2	463	164.766839565515	36
2	471	166.756423945733	37
2	485	171.075482111202	38
2	491	172.295401728411	39
2	497	173.48288933941	40
2	509	176.363246577872	41
2	521	179.045490592346	42
2	551	189.176277183174	43
2	561	191.628639381183	44
2	573	195.382357371774	45
2	581	196.660043077174	46
3	51	22.380308754176	0
3	83	31.546880100285	1
3	141	52.308610382589	2
3	161	60.625527439874	3
3	179	66.948602460533	4
3	219	79.955726475243	5
3	235	84.423349142329	6
3	319	118.414065651345	7
3	327	120.398795146747	8
3	353	129.103513477912	9
3	379	138.271942908319	10
3	389	141.513366628052	11
3	401	144.690752834707	12
3	455	163.51529450362	13
3	465	164.785444995529	14
3	499	173.501490900311	15
3	511	176.375597384037	16
3	523	179.055862105806	17
3	563	191.653876205322	18
3	575	195.394404446017	19
3	583	196.670238155147	20
4	237	84.440665151217	0
4	391	141.534984011693	1
4	457	163.525536243044	2
4	525	179.081440045065	3
5	458	163.535536243044	0

