version 2
run General-4-20231004-18:51:09-10516
attr configname General
attr datetime 20231004-18:51:09
attr experiment General
attr inifile omnetpp.ini
attr iterationvars ""
attr iterationvarsf ""
attr measurement ""
attr network Multihop
attr processid 10516
attr repetition 4
attr replication #4
attr resultdir results
attr runnumber 4
attr seedset 4
param Multihop.node[*].transmissionTime "uniform(1s, 2s)"
param Multihop.node[*].delayTime "uniform(0.01s, 0.2s)"
param Multihop.node[*].processingTime exponential(0.01s)
param Multihop.node[0].lossProbability 0
param Multihop.node[1].lossProbability 0.4
param Multihop.node[2].lossProbability 0.5
param Multihop.node[3].lossProbability 0.6
param Multihop.node[4].lossProbability 0.7
param Multihop.node[5].lossProbability 0.8

vector 0 Multihop.node[0] txVector ETV
vector 1 Multihop.node[1] txVector ETV
vector 2 Multihop.node[2] txVector ETV
vector 3 Multihop.node[3] txVector ETV
vector 4 Multihop.node[4] txVector ETV
vector 5 Multihop.node[5] rxVector ETV
0	1	0.193735669288	0
0	9	2.094357123985	1
0	11	3.691913329684	2
0	15	4.833377502546	3
0	17	6.531797741926	4
0	23	8.434976268247	5
0	29	10.007332760062	6
0	33	11.39909895548	7
0	35	13.011624298676	8
0	37	14.278098081856	9
0	41	15.922012345086	10
0	49	16.941037086223	11
0	51	18.382385619602	12
0	55	19.44809515836	13
0	59	21.313977913384	14
0	65	23.239131072455	15
0	67	24.500103151345	16
0	69	25.535861339572	17
0	77	26.764624009759	18
0	81	28.005662614864	19
0	87	29.638326593128	20
0	89	31.215323561954	21
0	95	32.566997273511	22
0	103	33.650166368264	23
0	107	34.886307690677	24
0	111	36.012489351363	25
0	115	37.698077554734	26
0	119	39.013751042693	27
0	123	40.711916647538	28
0	125	42.616492739798	29
0	133	43.992912210443	30
0	135	45.662422084634	31
0	139	46.742401324597	32
0	145	47.83759940198	33
0	149	48.937979828951	34
0	153	50.881930502051	35
0	157	52.473804147833	36
0	161	53.840573816712	37
0	163	55.361248218141	38
0	169	56.668260889746	39
0	173	57.797196223553	40
0	181	59.583949369531	41
0	183	60.820101035679	42
0	185	62.301560979024	43
0	189	64.228969589495	44
0	191	65.381997841564	45
0	195	67.349677470899	46
0	199	69.235474563823	47
0	201	70.606580746747	48
0	205	71.743506564913	49
0	213	72.815789820548	50
0	221	74.75292432603	51
0	223	75.756845223173	52
0	227	77.219174585459	53
0	233	78.527969150027	54
0	237	80.445480958713	55
0	241	81.53562268118	56
0	251	83.09709114527	57
0	253	84.759393580413	58
0	257	86.34293711201	59
0	265	88.247313733834	60
0	267	89.862133182741	61
0	273	90.996878828776	62
0	275	92.48866646636	63
0	279	94.420080733874	64
0	285	95.920042188062	65
0	291	97.435813866245	66
0	293	99.333905643938	67
0	301	100.473087443426	68
0	303	101.789363949248	69
0	309	103.543219399094	70
0	317	104.770200418462	71
0	321	106.077617030977	72
0	325	107.372249589455	73
0	327	108.636510098739	74
0	337	110.058876044969	75
0	339	111.786604716363	76
0	347	113.476390010365	77
0	351	115.42836043091	78
0	353	116.741727057066	79
0	355	118.731843977155	80
0	357	120.615886364052	81
0	359	121.635828723818	82
0	361	122.738623964287	83
0	363	123.832704606851	84
0	365	125.098501932959	85
0	371	126.293449620635	86
0	381	127.381560186309	87
0	383	129.372223900085	88
0	387	131.119472343161	89
0	393	132.734834358015	90
0	399	134.682271491189	91
0	401	136.653974812396	92
0	403	137.697897320531	93
0	407	138.983141914161	94
0	409	140.445991672261	95
0	411	141.870783928467	96
0	413	143.626433217583	97
0	417	144.877931683708	98
0	421	146.465566089993	99
0	427	147.490967791445	100
0	431	148.752810012467	101
0	441	149.860801205655	102
0	451	151.785988318651	103
0	457	153.523099194198	104
0	463	154.634973510551	105
0	465	156.63299200303	106
0	467	158.468866540502	107
0	469	159.997938923222	108
0	471	161.41097996655	109
0	473	162.473546872298	110
0	475	163.669571265728	111
0	477	165.123400504385	112
0	481	166.473131602081	113
0	487	168.342557519824	114
0	489	169.633397373055	115
0	491	171.379224937093	116
0	495	173.330893529263	117
0	501	174.65125818193	118
0	503	176.283548721262	119
0	507	177.818568887804	120
0	509	179.391852491917	121
0	511	180.793551580431	122
0	515	182.591645623706	123
0	521	183.899050511103	124
0	525	185.305806337306	125
0	527	187.036021668613	126
0	531	188.632524945457	127
0	535	190.297781719044	128
0	541	191.918350969358	129
0	543	193.702961705076	130
0	547	194.706834342713	131
0	549	195.924750478622	132
0	553	197.189666201743	133
0	561	199.147425953914	134
1	3	0.205631491707	0
1	13	3.704455879072	1
1	19	6.551820670823	2
1	25	8.449462546983	3
1	31	10.034043114363	4
1	39	14.304761450989	5
1	43	15.932418277398	6
1	53	18.394319783193	7
1	57	19.476643947932	8
1	61	21.344403724527	9
1	71	25.548233517826	10
1	79	26.77932994273	11
1	83	28.0181861827	12
1	91	31.231629988339	13
1	97	32.579912964471	14
1	105	33.676821422372	15
1	109	34.897094945499	16
1	113	36.051877962102	17
1	117	37.728974257572	18
1	121	39.028157403221	19
1	127	42.645247777656	20
1	137	45.672878837039	21
1	141	46.754853047326	22
1	147	47.84826348602	23
1	151	48.94975760856	24
1	155	50.921959009536	25
1	159	52.484022705865	26
1	165	55.389154732045	27
1	171	56.696047472369	28
1	175	57.81889657962	29
1	187	62.313513928285	30
1	193	65.395863524104	31
1	197	67.367560336758	32
1	203	70.617774330782	33
1	207	71.755653844011	34
1	215	72.832774394552	35
1	225	75.768417170074	36
1	229	77.243166844895	37
1	235	78.564805997839	38
1	239	80.457653874665	39
1	243	81.545727495285	40
1	255	84.782371399067	41
1	259	86.353105701797	42
1	269	89.878519167843	43
1	277	92.526138613638	44
1	281	94.435350885052	45
1	287	95.936769540109	46
1	295	99.356982494014	47
1	305	101.802638328109	48
1	311	103.568090346507	49
1	319	104.839738206716	50
1	323	106.098646615724	51
1	329	108.667472143627	52
1	341	111.802612597006	53
1	349	113.486556220211	54
1	367	125.113512935863	55
1	373	126.308195281105	56
1	385	129.38310020176	57
1	389	131.131644345118	58
1	395	132.747518095783	59
1	405	137.71105078718	60
1	415	143.656336330673	61
1	419	144.900246661147	62
1	423	146.477032026925	63
1	429	147.503006856344	64
1	433	148.763759630843	65
1	443	149.872791491722	66
1	453	151.813597210917	67
1	459	153.541090389141	68
1	479	165.13542803285	69
1	483	166.487476544842	70
1	493	171.400095379633	71
1	497	173.347922673567	72
1	505	176.297036399597	73
1	513	180.80794627281	74
1	517	182.603082850742	75
1	523	183.929082315307	76
1	529	187.06290466123	77
1	533	188.644120714263	78
1	537	190.308496350754	79
1	545	193.740073650821	80
1	551	195.956070601049	81
1	555	197.202424116623	82
2	5	0.234984622813	0
2	21	6.561872395865	1
2	27	8.468729289959	2
2	45	15.971423197414	3
2	63	21.372437392717	4
2	73	25.560226818811	5
2	85	28.02967990125	6
2	93	31.246073602501	7
2	99	32.590398624062	8
2	129	42.668469379808	9
2	143	46.781304555589	10
2	167	55.425657536822	11
2	177	57.839407411934	12
2	209	71.765683152875	13
2	217	72.856537629452	14
2	231	77.267246495464	15
2	245	81.558339804055	16
2	261	86.385806092381	17
2	271	89.89858595937	18
2	283	94.462002353182	19
2	289	95.967201958704	20
2	297	99.375314505965	21
2	307	101.813911852616	22
2	313	103.593585948082	23
2	331	108.68655432485	24
2	343	111.819236917252	25
2	369	125.139093376239	26
2	375	126.323165626993	27
2	391	131.146438168074	28
2	397	132.762722802563	29
2	425	146.494937550774	30
2	435	148.781257111043	31
2	445	149.893023597443	32
2	455	151.828524617896	33
2	461	153.566792588968	34
2	485	166.499281717996	35
2	499	173.358873195899	36
2	519	182.635066046853	37
2	539	190.341444938379	38
2	557	197.219175935108	39
3	7	0.254376010482	0
3	47	15.987335408583	1
3	75	25.574026491676	2
3	101	32.626906818056	3
3	131	42.690475199603	4
3	179	57.87709999151	5
3	211	71.796622035359	6
3	219	72.8732352782	7
3	247	81.568715385206	8
3	263	86.402815889795	9
3	299	99.407477455173	10
3	315	103.614104907518	11
3	333	108.699846486118	12
3	345	111.834432445944	13
3	377	126.336766253046	14
3	437	148.793542584469	15
3	447	149.904083318145	16
3	559	197.242671321653	17
4	249	81.579596950065	0
4	335	108.723679156179	1
4	379	126.353068586672	2
4	439	148.80700786135	3
4	449	149.919813360879	4
5	380	126.363068586672	0
5	450	149.929813360879	1

