version 2
run General-0-20231004-18:51:09-10516
attr configname General
attr datetime 20231004-18:51:09
attr experiment General
attr inifile omnetpp.ini
attr iterationvars ""
attr iterationvarsf ""
attr measurement ""
attr network Multihop
attr processid 10516
attr repetition 0
attr replication #0
attr resultdir results
attr runnumber 0
attr seedset 0
param Multihop.node[*].transmissionTime "uniform(1s, 2s)"
param Multihop.node[*].delayTime "uniform(0.01s, 0.2s)"
param Multihop.node[*].processingTime exponential(0.01s)
param Multihop.node[0].lossProbability 0
param Multihop.node[1].lossProbability 0.4
param Multihop.node[2].lossProbability 0.5
param Multihop.node[3].lossProbability 0.6
param Multihop.node[4].lossProbability 0.7
param Multihop.node[5].lossProbability 0.8

vector 0 Multihop.node[0] txVector ETV
vector 1 Multihop.node[1] txVector ETV
vector 2 Multihop.node[2] txVector ETV
vector 3 Multihop.node[3] txVector ETV
vector 4 Multihop.node[4] txVector ETV
0	1	0.114274565438	0
0	7	1.707119181827	1
0	13	3.554370919084	2
0	19	4.851905524339	3
0	25	6.329570635994	4
0	29	7.722355429157	5
0	31	9.059751590788	6
0	33	10.707923467345	7
0	43	12.076165004707	8
0	49	13.877075757206	9
0	53	15.597708408794	10
0	59	17.135081637025	11
0	61	18.608682059756	12
0	65	19.795014404299	13
0	69	21.011564761007	14
0	79	22.33570576513	15
0	81	23.785655754691	16
0	87	25.398719216537	17
0	93	27.368528285137	18
0	95	28.726680455337	19
0	97	30.477366594205	20
0	99	32.085197260909	21
0	103	33.410244488463	22
0	107	35.044518541618	23
0	109	36.69730886056	24
0	111	38.332367737618	25
0	115	40.327667303224	26
0	119	41.742035891236	27
0	121	43.365545997237	28
0	123	44.703553614746	29
0	127	46.378305937004	30
0	129	48.156651418729	31
0	131	50.106222470131	32
0	135	51.768749338182	33
0	139	53.391595431444	34
0	143	55.363540430394	35
0	151	56.873164802165	36
0	153	58.314875723635	37
0	155	60.294462454113	38
0	157	61.653906923094	39
0	159	63.134800459332	40
0	161	64.823461645589	41
0	165	66.70393753874	42
0	171	67.920759671907	43
0	175	69.429728632866	44
0	181	71.350886244866	45
0	185	72.360242946613	46
0	189	74.007417085189	47
0	191	75.272147249505	48
0	195	76.669968001153	49
0	199	77.834908461738	50
0	203	78.981350225005	51
0	209	80.685087505802	52
0	215	82.441194197237	53
0	217	84.080115277394	54
0	221	85.97166970822	55
0	227	87.420867440132	56
0	231	89.18789114275	57
0	239	90.863330219947	58
0	247	92.451795303337	59
0	253	93.846664595492	60
0	255	95.316796783898	61
0	259	97.032871317426	62
0	263	98.416333543444	63
0	265	100.294785734573	64
0	267	101.397649094537	65
0	273	102.490022981148	66
0	279	103.523648074902	67
0	283	104.744910757597	68
0	293	105.842170684207	69
0	301	106.941739769028	70
0	305	108.846387513289	71
0	309	110.354702963568	72
0	315	112.133753981748	73
0	319	113.273726564906	74
0	323	115.25630152163	75
0	333	116.676376889301	76
0	335	118.441288587246	77
0	339	120.385412107995	78
0	343	121.724815924028	79
0	345	123.063801040482	80
0	347	124.24329130848	81
0	351	125.41427790125	82
0	353	127.288850863307	83
0	359	129.232970614295	84
0	361	131.016614862328	85
0	367	132.516641156125	86
0	373	134.509037551778	87
0	379	136.37331899426	88
0	381	137.927561430336	89
0	383	139.139951932319	90
0	385	140.362395155784	91
0	391	141.581144523649	92
0	393	143.551381208543	93
0	395	145.23192590273	94
0	397	146.317221469786	95
0	401	147.373639804386	96
0	405	149.254644363029	97
0	407	150.872302282211	98
0	409	152.414801059133	99
0	411	154.269414642202	100
0	415	156.013249184545	101
0	423	157.690330760861	102
0	427	159.146345384261	103
0	429	160.283565805136	104
0	433	161.51278512816	105
0	435	163.417210105416	106
0	445	165.062994705123	107
0	449	166.488446242484	108
0	455	168.16832569738	109
0	461	169.957065118785	110
0	463	171.270757516223	111
0	467	173.228208372212	112
0	469	174.939792193781	113
0	473	176.093486497254	114
0	477	177.739750932279	115
0	483	178.926209150889	116
0	487	180.60105649599	117
0	491	181.775965368218	118
0	495	183.239115564694	119
0	497	184.443981326261	120
0	501	185.608940197696	121
0	511	187.331020858447	122
0	519	189.080275275121	123
0	521	190.367190320585	124
0	523	192.044453627272	125
0	525	193.107491919846	126
0	533	194.663141157088	127
0	537	196.366635942442	128
0	545	197.87902940794	129
0	549	199.097432256053	130
1	3	0.142870607559	0
1	9	1.726889246091	1
1	15	3.564954765775	2
1	21	4.878627636342	3
1	27	6.357654328637	4
1	35	10.749425166632	5
1	45	12.093514648919	6
1	51	13.895798969156	7
1	55	15.621922055595	8
1	63	18.632034961602	9
1	67	19.806467184572	10
1	71	21.023186125901	11
1	83	23.818919265308	12
1	89	25.419307557852	13
1	101	32.095589092473	14
1	105	33.452173954884	15
1	113	38.351086896154	16
1	117	40.34410511324	17
1	125	44.71736917318	18
1	133	50.116359115915	19
1	137	51.78994748184	20
1	141	53.422648644452	21
1	145	55.374113699658	22
1	163	64.85850076342	23
1	167	66.722265973901	24
1	173	67.955615495477	25
1	177	69.440596337689	26
1	183	71.379359521376	27
1	187	72.388655771328	28
1	193	75.290195223503	29
1	197	76.684585310113	30
1	201	77.853339292059	31
1	205	78.994753692387	32
1	211	80.700130943868	33
1	219	84.101511357029	34
1	223	86.020099774052	35
1	229	87.436174665098	36
1	233	89.200765247511	37
1	241	90.884108568788	38
1	249	92.471439838992	39
1	257	95.330193431224	40
1	261	97.056701109491	41
1	269	101.412019374675	42
1	275	102.534748335941	43
1	281	103.535171011155	44
1	285	104.796288855202	45
1	295	105.856514140766	46
1	303	106.952122598157	47
1	307	108.858212899308	48
1	311	110.384722828523	49
1	317	112.144091849604	50
1	321	113.28839929057	51
1	325	115.266820647152	52
1	337	118.465151500766	53
1	341	120.402136713163	54
1	349	124.25951728192	55
1	355	127.308222250484	56
1	363	131.027131691386	57
1	369	132.529750834175	58
1	375	134.532934322416	59
1	387	140.380824943538	60
1	399	146.333912607023	61
1	403	147.421106750524	62
1	413	154.285926949521	63
1	417	156.032589787871	64
1	425	157.724019942569	65
1	431	160.314901438011	66
1	437	163.431135835698	67
1	447	165.094652341932	68
1	451	166.504536688611	69
1	457	168.180932098674	70
1	465	171.287139402279	71
1	471	174.962901917463	72
1	475	176.105905693702	73
1	479	177.766231694011	74
1	485	178.939451142024	75
1	489	180.623246489442	76
1	493	181.804318002247	77
1	499	184.455314732494	78
1	503	185.619249460612	79
1	513	187.35417712103	80
1	527	193.11758475009	81
1	535	194.675145579039	82
1	539	196.385321599757	83
1	547	197.895102200826	84
1	551	199.114210276074	85
2	5	0.172386060918	0
2	11	1.741740527728	1
2	17	3.578138327183	2
2	23	4.895166462014	3
2	37	10.760937475169	4
2	47	12.114874038336	5
2	57	15.633041517201	6
2	73	21.035700545222	7
2	85	23.829964877566	8
2	91	25.431181818512	9
2	147	55.390113168524	10
2	169	66.752298379126	11
2	179	69.453849741844	12
2	207	79.010432733922	13
2	213	80.732768279627	14
2	225	86.031335040526	15
2	235	89.214522635935	16
2	243	90.901727246501	17
2	251	92.487880886075	18
2	271	101.430044894533	19
2	277	102.548619636862	20
2	287	104.809304514334	21
2	297	105.872848766943	22
2	313	110.400022857304	23
2	327	115.2813697656	24
2	357	127.327301890757	25
2	365	131.049141400451	26
2	371	132.551116799128	27
2	377	134.576313665755	28
2	389	140.396841733403	29
2	419	156.055131820572	30
2	439	163.44846951243	31
2	453	166.521141719408	32
2	459	168.212159565213	33
2	481	177.789978493549	34
2	505	185.642992890756	35
2	515	187.364643998466	36
2	529	193.145484646135	37
2	541	196.410811716549	38
2	553	199.13678264603	39
3	39	10.791346397328	0
3	75	21.050586115715	1
3	149	55.400315069805	2
3	237	89.258166340466	3
3	245	90.914347818918	4
3	289	104.827005282929	5
3	299	105.901246094794	6
3	329	115.29153744326	7
3	421	156.071471120766	8
3	441	163.458470065949	9
3	507	185.65396456754	10
3	517	187.376990556959	11
3	531	193.197044357091	12
3	543	196.430137835102	13
3	555	199.153441070896	14
4	41	10.807763489055	0
4	77	21.083875249457	1
4	291	104.842946017912	2
4	331	115.304160736352	3
4	443	163.472207698887	4
4	509	185.666416548466	5

