version 2
run General-2-20231004-18:51:09-10516
attr configname General
attr datetime 20231004-18:51:09
attr experiment General
attr inifile omnetpp.ini
attr iterationvars ""
attr iterationvarsf ""
attr measurement ""
attr network Multihop
attr processid 10516
attr repetition 2
attr replication #2
attr resultdir results
attr runnumber 2
attr seedset 2
param Multihop.node[*].transmissionTime "uniform(1s, 2s)"
param Multihop.node[*].delayTime "uniform(0.01s, 0.2s)"
param Multihop.node[*].processingTime exponential(0.01s)
param Multihop.node[0].lossProbability 0
param Multihop.node[1].lossProbability 0.4
param Multihop.node[2].lossProbability 0.5
param Multihop.node[3].lossProbability 0.6
param Multihop.node[4].lossProbability 0.7
param Multihop.node[5].lossProbability 0.8

vector 0 Multihop.node[0] txVector ETV
vector 1 Multihop.node[1] txVector ETV
vector 2 Multihop.node[2] txVector ETV
vector 3 Multihop.node[3] txVector ETV
vector 4 Multihop.node[4] txVector ETV
0	1	0.092839031499	0
0	3	1.277921112972	1
0	7	3.20946197656	2
0	11	4.694211072773	3
0	13	5.848637748296	4
0	17	7.54750043761	5
0	19	9.03267635244	6
0	25	10.66541408307	7
0	29	12.163975250694	8
0	35	13.883729481624	9
0	39	15.291037314126	10
0	43	17.260669721776	11
0	47	18.548538541674	12
0	49	19.730265578973	13
0	53	21.224555346901	14
0	55	22.446390514048	15
0	57	24.21388169054	16
0	59	25.791189760687	17
0	63	26.959013075121	18
0	67	28.427686657543	19
0	71	30.220776400548	20
0	77	31.833806094267	21
0	83	32.982370874631	22
0	87	34.199640794444	23
0	91	35.514938275582	24
0	97	37.324113560627	25
0	103	38.598286814076	26
0	105	40.54637723744	27
0	109	42.369261872508	28
0	111	43.590260026995	29
0	113	45.336891439995	30
0	115	46.768429209963	31
0	123	48.656732956432	32
0	127	50.363274958469	33
0	129	52.323588688411	34
0	133	53.749611215452	35
0	135	55.511541214325	36
0	139	57.444169775136	37
0	143	58.961600536267	38
0	145	60.515234382144	39
0	147	62.088876880492	40
0	153	63.482810171806	41
0	155	65.211308674208	42
0	159	66.567062298088	43
0	163	67.929089704781	44
0	167	69.292415596099	45
0	171	71.059903854757	46
0	173	72.88627186047	47
0	179	74.298018301158	48
0	181	75.679711239665	49
0	183	77.642170815283	50
0	189	79.289185041116	51
0	197	80.518571005223	52
0	203	82.050715446027	53
0	211	83.52755885224	54
0	213	84.896166393786	55
0	219	86.111972791163	56
0	221	87.666512264658	57
0	225	89.561658003388	58
0	233	91.539291394196	59
0	235	93.435665270566	60
0	239	95.273495818508	61
0	245	96.594814402071	62
0	247	98.53106244539	63
0	249	99.994805053362	64
0	251	101.847094013608	65
0	253	103.059861384585	66
0	257	104.059984968762	67
0	259	105.235101357821	68
0	261	106.749960524981	69
0	263	108.629950876135	70
0	265	110.41474279903	71
0	267	111.944563974879	72
0	277	113.2184018444	73
0	279	114.723813479553	74
0	283	116.058908143799	75
0	287	117.278198116712	76
0	295	118.998546140754	77
0	297	120.811328092377	78
0	301	122.357200795572	79
0	303	123.373311060734	80
0	305	125.308346788652	81
0	309	126.698932468679	82
0	311	128.518397844184	83
0	313	129.608768222175	84
0	315	130.967008529949	85
0	319	131.985993657979	86
0	323	133.016361909938	87
0	327	134.018944484434	88
0	333	135.606118685818	89
0	335	136.968546068082	90
0	339	138.841673408188	91
0	345	140.585535438284	92
0	347	142.320886832447	93
0	357	143.506476568542	94
0	361	145.35493857136	95
0	369	147.034965825519	96
0	373	148.981659949078	97
0	377	150.718260486397	98
0	379	151.883127628845	99
0	383	153.71058097926	100
0	387	155.064753401811	101
0	389	156.096558279144	102
0	391	157.164293518309	103
0	401	158.792474736944	104
0	405	160.174137314335	105
0	407	161.954439185113	106
0	415	163.38041393484	107
0	425	165.163046952821	108
0	427	166.581954265032	109
0	429	167.650553452103	110
0	435	168.7481015227	111
0	443	170.028961513211	112
0	449	171.78596615281	113
0	451	173.056143912739	114
0	455	174.922324154545	115
0	465	176.678337161681	116
0	467	178.073551220605	117
0	471	179.672097602179	118
0	477	180.84654042569	119
0	481	181.848081161054	120
0	483	183.273720405549	121
0	487	185.238117304417	122
0	489	186.98315556489	123
0	495	188.322818835984	124
0	501	189.545921451199	125
0	505	190.721566137412	126
0	507	192.44719621611	127
0	511	193.838170478141	128
0	513	195.572855786674	129
0	515	197.546407102861	130
0	517	198.788744605866	131
0	523	199.995363357032	132
1	5	1.317434556699	0
1	9	3.22332649325	1
1	15	5.859915520025	2
1	21	9.059726303381	3
1	27	10.684252245374	4
1	31	12.176966025994	5
1	37	13.895677285577	6
1	41	15.304561559166	7
1	45	17.271904891087	8
1	51	19.748607276142	9
1	61	25.805770058617	10
1	65	26.979633936245	11
1	69	28.448565214892	12
1	73	30.277718597223	13
1	79	31.862930531091	14
1	85	33.042377167719	15
1	89	34.212634740698	16
1	93	35.529302809416	17
1	99	37.350118361609	18
1	107	40.563616170223	19
1	117	46.806764205299	20
1	125	48.673291889573	21
1	131	52.337487670698	22
1	137	55.533962020046	23
1	141	57.475752163989	24
1	149	62.124987941583	25
1	157	65.223703096292	26
1	161	66.5981242846	27
1	165	67.946085521498	28
1	169	69.327005128442	29
1	175	72.906237183667	30
1	185	77.683834994425	31
1	191	79.320321399129	32
1	199	80.563082417604	33
1	205	82.066182364096	34
1	215	84.922627990617	35
1	223	87.702982742443	36
1	227	89.596634120182	37
1	237	93.453353760593	38
1	241	95.288558412362	39
1	255	103.070836369234	40
1	269	111.954831359416	41
1	281	114.735577217545	42
1	285	116.087018646336	43
1	289	117.288726727098	44
1	299	120.821512482319	45
1	307	125.342499346493	46
1	317	130.982987385826	47
1	321	131.9991456155	48
1	325	133.032049033824	49
1	329	134.07720795253	50
1	337	136.985182995925	51
1	341	138.865705004115	52
1	349	142.332303525267	53
1	359	143.519262692329	54
1	363	145.376243928262	55
1	371	147.048443596763	56
1	375	148.998113790628	57
1	381	151.900886349541	58
1	385	153.739032435137	59
1	393	157.184370550003	60
1	403	158.83593633461	61
1	409	161.968687165253	62
1	417	163.401419892394	63
1	431	167.663119113238	64
1	437	168.759439334873	65
1	445	170.04422428451	66
1	453	173.102640256369	67
1	457	174.961778984661	68
1	469	178.085182134651	69
1	473	179.683707230952	70
1	479	180.85696187435	71
1	485	183.2857377289	72
1	491	187.003685040356	73
1	497	188.346691915257	74
1	503	189.558865352839	75
1	509	192.462083326754	76
1	519	198.804268191604	77
2	23	9.081215658498	0
2	33	12.194867174288	1
2	75	30.288991078097	2
2	81	31.880054358725	3
2	95	35.545610967066	4
2	101	37.376945892201	5
2	119	46.823756104309	6
2	151	62.135043540067	7
2	177	72.92042134385	8
2	187	77.710103487028	9
2	193	79.339298453346	10
2	201	80.581637985533	11
2	207	82.085319803187	12
2	217	84.948633792627	13
2	229	89.60704245716	14
2	243	95.301807949676	15
2	271	111.985211179027	16
2	291	117.308489054312	17
2	331	134.092926470434	18
2	343	138.879615940889	19
2	351	142.342403744851	20
2	365	145.407944367771	21
2	395	157.209055880073	22
2	411	161.986434699602	23
2	419	163.42321656074	24
2	433	167.692853918068	25
2	439	168.770210962217	26
2	447	170.068350679526	27
2	459	174.973803632841	28
2	475	179.693840485194	29
2	493	187.023932616636	30
2	499	188.362744712568	31
2	521	198.8269243625	32
3	121	46.845864132968	0
3	195	79.364724298099	1
3	209	82.096446704457	2
3	231	89.63024087717	3
3	273	111.998433056603	4
3	293	117.321861549222	5
3	353	142.35707248704	6
3	367	145.419611594414	7
3	397	157.224878892712	8
3	413	162.002077208053	9
3	421	163.437430065316	10
3	441	168.784153933245	11
3	461	175.027468989737	12
4	275	112.010002055321	0
4	355	142.367181083802	1
4	399	157.254431211192	2
4	423	163.456005072621	3
4	463	175.037881583419	4

