version 2
run General-3-20231004-18:51:09-10516
attr configname General
attr datetime 20231004-18:51:09
attr experiment General
attr inifile omnetpp.ini
attr iterationvars ""
attr iterationvarsf ""
attr measurement ""
attr network Multihop
attr processid 10516
attr repetition 3
attr replication #3
attr resultdir results
attr runnumber 3
attr seedset 3
param Multihop.node[*].transmissionTime "uniform(1s, 2s)"
param Multihop.node[*].delayTime "uniform(0.01s, 0.2s)"
param Multihop.node[*].processingTime exponential(0.01s)
param Multihop.node[0].lossProbability 0
param Multihop.node[1].lossProbability 0.4
param Multihop.node[2].lossProbability 0.5
param Multihop.node[3].lossProbability 0.6
param Multihop.node[4].lossProbability 0.7
param Multihop.node[5].lossProbability 0.8

vector 0 Multihop.node[0] txVector ETV
vector 1 Multihop.node[1] txVector ETV
vector 2 Multihop.node[2] txVector ETV
vector 3 Multihop.node[3] txVector ETV
vector 4 Multihop.node[4] txVector ETV
vector 5 Multihop.node[5] rxVector ETV
0	1	0.114651601831	0
0	5	1.185376482154	1
0	13	2.306705061416	2
0	15	3.347335798968	3
0	17	4.5952241007	4
0	21	5.688775596278	5
0	27	6.834145743702	6
0	33	8.188050816603	7
0	37	9.953877191128	8
0	41	11.356237833457	9
0	45	12.662598460516	10
0	47	13.93751856808	11
0	53	15.392126333037	12
0	55	16.649711624788	13
0	57	18.542776731145	14
0	67	20.261198756354	15
0	69	21.660189712489	16
0	71	23.084891322371	17
0	77	24.498610006016	18
0	79	25.521727574593	19
0	83	26.837494822987	20
0	85	28.585652259714	21
0	87	30.195275923773	22
0	93	31.398630452645	23
0	95	33.269702503295	24
0	97	35.080930259615	25
0	101	36.455054987758	26
0	103	38.215633478086	27
0	107	39.279403279839	28
0	111	40.972037026962	29
0	119	42.334377485631	30
0	121	43.650662019221	31
0	125	45.494449114498	32
0	129	47.034568715912	33
0	133	48.55617305271	34
0	135	49.858436666267	35
0	139	51.665459341208	36
0	147	52.68668508141	37
0	151	54.604715103821	38
0	153	56.53044788826	39
0	155	57.807770937287	40
0	157	58.983833052522	41
0	159	60.974134241069	42
0	161	62.666784857471	43
0	165	64.418924887503	44
0	171	65.504925602885	45
0	175	66.866576220445	46
0	183	68.291306171171	47
0	193	70.091909681983	48
0	195	71.37531705394	49
0	199	73.257225501655	50
0	201	75.085247618683	51
0	211	76.318939627918	52
0	213	77.788320940292	53
0	221	79.290851156531	54
0	225	81.177749283915	55
0	227	82.749986903812	56
0	229	84.092406490655	57
0	235	85.702052205406	58
0	239	87.702027669247	59
0	241	88.959234047286	60
0	247	90.235875594035	61
0	249	92.071121904604	62
0	255	93.217438126985	63
0	257	94.764568881203	64
0	259	96.25638442936	65
0	261	97.386042813376	66
0	269	99.246096276284	67
0	271	101.2373919972	68
0	277	102.395061752597	69
0	279	103.735067677755	70
0	283	105.431817665534	71
0	287	107.248853026494	72
0	295	108.330424069032	73
0	299	109.425305402908	74
0	301	110.963769094623	75
0	307	112.613342353213	76
0	315	114.110007307795	77
0	317	116.107819707669	78
0	319	117.267466866016	79
0	327	119.087008949672	80
0	329	120.800613493729	81
0	335	122.039049791475	82
0	337	123.967548637954	83
0	343	125.330624917592	84
0	345	126.93311544864	85
0	351	128.164576479304	86
0	359	129.946960458369	87
0	365	131.052619662904	88
0	373	133.022048832453	89
0	375	134.0441446468	90
0	379	135.26652096638	91
0	383	137.049278496835	92
0	391	138.526210261114	93
0	395	140.329038231239	94
0	399	141.690122006299	95
0	401	142.996249302594	96
0	403	144.279938752368	97
0	407	145.49283308799	98
0	409	146.618654127769	99
0	413	148.611577684829	100
0	419	150.228282971611	101
0	423	151.682594752475	102
0	425	153.471183888684	103
0	429	155.088638070808	104
0	431	156.213259820896	105
0	433	157.244189017289	106
0	437	158.476287406706	107
0	439	159.750924876262	108
0	443	161.692839239793	109
0	449	162.768627444584	110
0	453	164.191251862165	111
0	455	165.806441318313	112
0	459	166.987181647284	113
0	463	168.352663319394	114
0	465	170.145985997584	115
0	469	171.780289467261	116
0	475	173.418342348723	117
0	477	174.9498054791	118
0	485	176.128344313078	119
0	489	177.454608318465	120
0	491	178.555186031223	121
0	495	180.057109374623	122
0	497	181.127479133965	123
0	503	182.966382541531	124
0	509	184.499977476499	125
0	513	186.494497503224	126
0	517	188.338773135166	127
0	523	190.195391293685	128
0	527	191.910770363244	129
0	531	193.545543582248	130
0	539	194.736826873454	131
0	541	196.553096122178	132
0	545	198.37632967981	133
0	547	199.563280675164	134
1	3	0.14297423212	0
1	7	1.203800179986	1
1	19	4.617092755662	2
1	23	5.70481181144	3
1	29	6.85093100799	4
1	35	8.234413030519	5
1	39	9.97192405745	6
1	43	11.375071712902	7
1	49	13.961692920339	8
1	59	18.552985030614	9
1	73	23.110362457989	10
1	81	25.540000535862	11
1	89	30.215878425496	12
1	99	35.091712038655	13
1	105	38.244024577856	14
1	109	39.295307388823	15
1	113	40.989295685822	16
1	123	43.667381577452	17
1	127	45.521943477619	18
1	131	47.046107215537	19
1	137	49.872285867877	20
1	141	51.682045751507	21
1	149	52.699003974952	22
1	163	62.678020290052	23
1	167	64.439879797381	24
1	173	65.522393424494	25
1	177	66.893712030405	26
1	185	68.305612849965	27
1	197	71.393200045239	28
1	203	75.097515089648	29
1	215	77.800212745342	30
1	223	79.307847947004	31
1	231	84.103691842373	32
1	237	85.71517123935	33
1	243	88.972134115152	34
1	251	92.13503319597	35
1	263	97.398506908314	36
1	273	101.253753353511	37
1	281	103.758867132124	38
1	285	105.460638137333	39
1	289	107.26253015037	40
1	297	108.345631128168	41
1	303	110.977479175433	42
1	309	112.63550752141	43
1	321	117.281069369174	44
1	331	120.822575711752	45
1	339	123.993645883846	46
1	347	126.948977905389	47
1	353	128.190363736842	48
1	361	129.962740850243	49
1	367	131.075354722326	50
1	377	134.058556798051	51
1	381	135.282488454915	52
1	385	137.066541106272	53
1	393	138.559313491157	54
1	397	140.360585458548	55
1	405	144.295390619933	56
1	411	146.634337515092	57
1	415	148.660246869118	58
1	421	150.243360224479	59
1	427	153.490137158947	60
1	435	157.2543173927	61
1	441	159.764165127335	62
1	445	161.706046144381	63
1	451	162.791726688357	64
1	457	165.830060435253	65
1	461	167.01217681694	66
1	467	170.170283911206	67
1	471	171.800935458111	68
1	479	174.974464643968	69
1	487	176.147113332941	70
1	493	178.581330346518	71
1	499	181.14919987639	72
1	505	182.99499022792	73
1	511	184.514044880283	74
1	515	186.509710930325	75
1	519	188.364685481958	76
1	525	190.223103220117	77
1	529	191.924930556453	78
1	533	193.563899483318	79
1	543	196.5633290436	80
1	549	199.597179333344	81
2	9	1.219546036734	0
2	25	5.717239880231	1
2	31	6.885384189505	2
2	51	13.988706847619	3
2	61	18.56452490639	4
2	75	23.13286492054	5
2	91	30.236745843699	6
2	115	41.005408264692	7
2	143	51.692309460942	8
2	169	64.45387817745	9
2	179	66.912181653619	10
2	187	68.330429397461	11
2	205	75.139296324046	12
2	217	77.81375676141	13
2	233	84.114088798849	14
2	245	89.004936191539	15
2	253	92.149429555725	16
2	265	97.42589846813	17
2	275	101.276043918253	18
2	291	107.280762396213	19
2	305	111.005889960785	20
2	311	112.656867020058	21
2	323	117.292188988689	22
2	333	120.832834305378	23
2	341	124.016359688867	24
2	349	126.969280200829	25
2	355	128.205159087879	26
2	363	129.991998146822	27
2	369	131.090632597913	28
2	387	137.081137367141	29
2	417	148.673719130846	30
2	447	161.758751963497	31
2	473	171.810940247413	32
2	481	174.984718081359	33
2	501	181.160525567334	34
2	507	183.014596432942	35
2	521	188.375803085904	36
2	535	193.574173522884	37
3	11	1.229735296555	0
3	63	18.578459869258	1
3	117	41.031929747882	2
3	145	51.709353039963	3
3	181	66.943477281703	4
3	189	68.363110911229	5
3	207	75.163827195851	6
3	219	77.826887544228	7
3	267	97.499570960397	8
3	293	107.316002249813	9
3	313	112.676632832642	10
3	325	117.305561972264	11
3	357	128.220400172362	12
3	371	131.102131255965	13
3	389	137.094181273985	14
3	483	174.995399476757	15
3	537	193.584717820969	16
4	65	18.605010981626	0
4	191	68.388516110597	1
4	209	75.175912834979	2
5	66	18.615010981626	0

