version 2
run General-2-20230921-22:37:28-7196
attr configname General
attr datetime 20230921-22:37:28
attr experiment General
attr inifile omnetpp.ini
attr iterationvars ""
attr iterationvarsf ""
attr measurement ""
attr network Network3
attr processid 7196
attr repetition 2
attr replication #2
attr resultdir results
attr runnumber 2
attr seedset 2
param Network3.node[*].transmissionTime "uniform(1s, 2s)"
param Network3.node[*].delayTime "uniform(0.01s, 0.2s)"
param Network3.node[*].processingTime exponential(0.01s)
param Network3.node[0].lossProbability 0
param Network3.node[1].lossProbability 0.3
param Network3.node[2].lossProbability 0.3
param Network3.node[3].lossProbability "0.3 / 2"
param Network3.node[4].lossProbability "0.3 / 2"
param Network3.node[6].lossProbability "0.3 * 2"
param Network3.node[7].lossProbability "0.3 * 2"
param Network3.node[5].lossProbability "0.3 * 3"

vector 0 Network3.node[0] txVector ETV
vector 1 Network3.node[2] txVector ETV
vector 2 Network3.node[4] txVector ETV
vector 3 Network3.node[1] txVector ETV
vector 4 Network3.node[3] txVector ETV
vector 5 Network3.node[7] txVector ETV
vector 6 Network3.node[6] txVector ETV
vector 7 Network3.node[5] rxVector ETV
0	1	0.092839031499	0
0	1	0.092839031499	1
0	19	1.277921112972	2
0	19	1.277921112972	3
0	41	2.910658843602	4
0	41	2.910658843602	5
0	44	4.207677203483	6
0	44	4.207677203483	7
0	47	5.635799534638	8
0	47	5.635799534638	9
0	57	6.817526571937	10
0	57	6.817526571937	11
0	79	8.394834642084	12
0	79	8.394834642084	13
0	97	10.247115675145	14
0	97	10.247115675145	15
0	122	11.521288928594	16
0	122	11.521288928594	17
0	144	13.123106047064	18
0	144	13.123106047064	19
0	169	14.382850798564	20
0	169	14.382850798564	21
0	191	16.297326370394	22
0	191	16.297326370394	23
0	216	18.17652840076	24
0	216	18.17652840076	25
0	238	19.768612973643	26
0	238	19.768612973643	27
0	256	21.257879141271	28
0	256	21.257879141271	29
0	259	22.553051447049	30
0	259	22.553051447049	31
0	269	24.067910614209	32
0	269	24.067910614209	33
0	294	25.094294760395	34
0	294	25.094294760395	35
0	316	26.125542321727	36
0	316	26.125542321727	37
0	330	27.793969371142	38
0	330	27.793969371142	39
0	348	29.747629335402	40
0	348	29.747629335402	41
0	373	31.197856514967	42
0	373	31.197856514967	43
0	384	32.934457052286	44
0	384	32.934457052286	45
0	406	34.596424840178	46
0	406	34.596424840178	47
0	428	35.601088360903	48
0	428	35.601088360903	49
0	438	36.8095908554	50
0	438	36.8095908554	51
0	460	38.614722395568	52
0	460	38.614722395568	53
0	482	40.327729685717	54
0	482	40.327729685717	55
0	507	41.506039511665	56
0	507	41.506039511665	57
0	518	42.897013773696	58
0	518	42.897013773696	59
0	540	44.32660238959	60
0	540	44.32660238959	61
0	565	45.414389946983	62
0	565	45.414389946983	63
0	579	46.455635898067	64
0	579	46.455635898067	65
0	597	47.887768998761	66
0	597	47.887768998761	67
0	608	49.019048221428	68
0	608	49.019048221428	69
0	622	50.961468834216	70
0	622	50.961468834216	71
0	644	52.249104093081	72
0	644	52.249104093081	73
0	662	54.192274816121	74
0	662	54.192274816121	75
0	684	55.255176351891	76
0	684	55.255176351891	77
0	705	56.535444635685	78
0	705	56.535444635685	79
0	726	57.635409576605	80
0	726	57.635409576605	81
0	733	58.96816953064	82
0	733	58.96816953064	83
0	755	60.913044124861	84
0	755	60.913044124861	85
0	776	62.820103557334	86
0	776	62.820103557334	87
0	797	64.086729450403	88
0	797	64.086729450403	89
0	822	65.122514427891	90
0	822	65.122514427891	91
0	847	66.276580548864	92
0	847	66.276580548864	93
0	872	67.551093924111	94
0	872	67.551093924111	95
0	897	69.512484114869	96
0	897	69.512484114869	97
0	919	70.70468625498	98
0	919	70.70468625498	99
0	937	72.307231049305	100
0	937	72.307231049305	101
0	955	73.95321158112	102
0	955	73.95321158112	103
0	973	75.882560757706	104
0	973	75.882560757706	105
0	994	77.392095256848	106
0	994	77.392095256848	107
0	1016	79.05573651243	108
0	1016	79.05573651243	109
0	1038	80.223789634202	110
0	1038	80.223789634202	111
0	1048	81.933151567839	112
0	1048	81.933151567839	113
0	1070	83.580921043893	114
0	1070	83.580921043893	115
0	1073	85.05522616419	116
0	1073	85.05522616419	117
0	1095	86.276119131846	118
0	1095	86.276119131846	119
0	1120	87.413068994665	120
0	1120	87.413068994665	121
0	1126	88.594190442953	122
0	1126	88.594190442953	123
0	1148	89.871843511257	124
0	1148	89.871843511257	125
0	1166	91.870123040182	126
0	1166	91.870123040182	127
0	1184	93.11284215657	128
0	1184	93.11284215657	129
0	1202	94.928821704834	130
0	1202	94.928821704834	131
0	1220	96.063768539596	132
0	1220	96.063768539596	133
0	1242	97.962467857888	134
0	1242	97.962467857888	135
0	1256	99.820244187275	136
0	1256	99.820244187275	137
0	1266	101.439877182962	138
0	1266	101.439877182962	139
0	1269	102.90964979913	140
0	1269	102.90964979913	141
0	1294	104.106000422052	142
0	1294	104.106000422052	143
0	1316	105.695380066539	144
0	1316	105.695380066539	145
0	1319	106.986496189161	146
0	1319	106.986496189161	147
0	1344	108.106111530698	148
0	1344	108.106111530698	149
0	1369	109.80745347917	150
0	1369	109.80745347917	151
0	1391	111.665906856087	152
0	1391	111.665906856087	153
0	1397	112.879148662108	154
0	1397	112.879148662108	155
0	1400	114.754829745059	156
0	1400	114.754829745059	157
0	1414	115.766880942294	158
0	1414	115.766880942294	159
0	1435	116.778381829867	160
0	1435	116.778381829867	161
0	1438	117.798946433021	162
0	1438	117.798946433021	163
0	1452	119.611200518226	164
0	1452	119.611200518226	165
0	1477	121.114221922373	166
0	1477	121.114221922373	167
0	1492	122.543929348485	168
0	1492	122.543929348485	169
0	1510	124.345531124873	170
0	1510	124.345531124873	171
0	1520	125.471763778264	172
0	1520	125.471763778264	173
0	1534	126.488904541144	174
0	1534	126.488904541144	175
0	1559	128.471169208428	176
0	1559	128.471169208428	177
0	1581	129.70823180072	178
0	1581	129.70823180072	179
0	1599	131.145710542118	180
0	1599	131.145710542118	181
0	1620	132.619485782012	182
0	1620	132.619485782012	183
0	1642	133.841647259676	184
0	1642	133.841647259676	185
0	1664	135.285119797819	186
0	1664	135.285119797819	187
0	1686	137.166414492315	188
0	1686	137.166414492315	189
0	1704	138.614758129016	190
0	1704	138.614758129016	191
0	1725	140.469112813956	192
0	1725	140.469112813956	193
0	1743	141.767410906981	194
0	1743	141.767410906981	195
0	1768	143.492312575243	196
0	1768	143.492312575243	197
0	1779	144.594882617024	198
0	1779	144.594882617024	199
0	1782	146.127058659232	200
0	1782	146.127058659232	201
0	1793	147.412243975344	202
0	1793	147.412243975344	203
0	1815	149.253410828783	204
0	1815	149.253410828783	205
0	1833	150.984897675476	206
0	1833	150.984897675476	207
0	1851	152.198650916125	208
0	1851	152.198650916125	209
0	1873	153.855887733651	210
0	1873	153.855887733651	211
0	1895	155.309818235244	212
0	1895	155.309818235244	213
0	1920	156.910600829655	214
0	1920	156.910600829655	215
0	1930	158.041782526318	216
0	1930	158.041782526318	217
0	1952	159.666229853192	218
0	1952	159.666229853192	219
0	1970	161.162780732866	220
0	1970	161.162780732866	221
0	1991	162.336817060848	222
0	1991	162.336817060848	223
0	2016	163.580885209394	224
0	2016	163.580885209394	225
0	2038	164.857558627864	226
0	2038	164.857558627864	227
0	2056	165.906602969179	228
0	2056	165.906602969179	229
0	2070	167.500919974195	230
0	2070	167.500919974195	231
0	2084	169.433653445235	232
0	2084	169.433653445235	233
0	2106	171.22141979497	234
0	2106	171.22141979497	235
0	2124	173.103328494142	236
0	2124	173.103328494142	237
0	2146	174.88339848376	238
0	2146	174.88339848376	239
0	2168	176.862958434291	240
0	2168	176.862958434291	241
0	2193	178.157462117282	242
0	2193	178.157462117282	243
0	2215	179.888095056425	244
0	2215	179.888095056425	245
0	2229	181.27384676437	246
0	2229	181.27384676437	247
0	2251	182.397553349865	248
0	2251	182.397553349865	249
0	2262	184.182478712892	250
0	2262	184.182478712892	251
0	2283	185.621685908196	252
0	2283	185.621685908196	253
0	2305	187.459700319936	254
0	2305	187.459700319936	255
0	2327	188.74302401675	256
0	2327	188.74302401675	257
0	2341	190.09592589086	258
0	2341	190.09592589086	259
0	2366	192.020851395811	260
0	2366	192.020851395811	261
0	2391	193.040237475206	262
0	2391	193.040237475206	263
0	2409	194.861654558937	264
0	2409	194.861654558937	265
0	2434	196.450329068602	266
0	2434	196.450329068602	267
0	2448	198.102168366565	268
0	2448	198.102168366565	269
0	2473	199.810848122249	270
0	2473	199.810848122249	271
0	2498	201.637365700929	272
0	2498	201.637365700929	273
0	2523	203.381032546303	274
0	2523	203.381032546303	275
0	2541	205.292078816584	276
0	2541	205.292078816584	277
0	2562	207.185218764023	278
0	2562	207.185218764023	279
0	2568	208.224448074373	280
0	2568	208.224448074373	281
0	2590	210.159565055296	282
0	2590	210.159565055296	283
0	2612	211.176028681006	284
0	2612	211.176028681006	285
0	2630	212.633140632203	286
0	2630	212.633140632203	287
0	2633	213.815226172814	288
0	2633	213.815226172814	289
0	2655	215.216613130662	290
0	2655	215.216613130662	291
0	2677	217.124524265779	292
0	2677	217.124524265779	293
0	2695	218.976112520806	294
0	2695	218.976112520806	295
0	2713	220.098458224227	296
0	2713	220.098458224227	297
0	2735	221.769439480518	298
0	2735	221.769439480518	299
0	2757	223.16609996885	300
0	2757	223.16609996885	301
0	2778	224.551858489187	302
0	2778	224.551858489187	303
0	2796	226.501184992278	304
0	2796	226.501184992278	305
0	2806	227.595741456626	306
0	2806	227.595741456626	307
0	2824	229.485323365098	308
0	2824	229.485323365098	309
0	2834	231.067150649633	310
0	2834	231.067150649633	311
0	2848	232.265164140165	312
0	2848	232.265164140165	313
0	2851	233.859988034023	314
0	2851	233.859988034023	315
0	2873	235.78569248856	316
0	2873	235.78569248856	317
0	2887	237.630729125365	318
0	2887	237.630729125365	319
0	2912	238.690644159	320
0	2912	238.690644159	321
1	4	0.110816610738	0
1	4	0.110816610738	1
1	22	1.299410468089	2
1	22	1.299410468089	3
1	50	5.654881403904	4
1	50	5.654881403904	5
1	61	6.832106869867	6
1	61	6.832106869867	7
1	82	8.40728431576	8
1	82	8.40728431576	9
1	101	10.273943205737	10
1	101	10.273943205737	11
1	125	11.533142896748	12
1	125	11.533142896748	13
1	152	13.15094496606	14
1	152	13.15094496606	15
1	172	14.398156770571	16
1	172	14.398156770571	17
1	195	16.322752215147	18
1	195	16.322752215147	19
1	219	18.189590643662	20
1	219	18.189590643662	21
1	242	19.790636735193	22
1	242	19.790636735193	23
1	262	22.566388788221	24
1	262	22.566388788221	25
1	272	24.081132491785	26
1	272	24.081132491785	27
1	298	25.116489940473	28
1	298	25.116489940473	29
1	327	26.166843233234	30
1	327	26.166843233234	31
1	333	27.806289320166	32
1	333	27.806289320166	33
1	351	29.757729554986	34
1	351	29.757729554986	35
1	410	34.614711671349	36
1	410	34.614711671349	37
1	431	35.613654022038	38
1	431	35.613654022038	39
1	441	36.823533826428	40
1	441	36.823533826428	41
1	473	38.663925638025	42
1	473	38.663925638025	43
1	497	40.386198285659	44
1	497	40.386198285659	45
1	521	42.907928121592	46
1	521	42.907928121592	47
1	543	44.34962423594	48
1	543	44.34962423594	49
1	569	45.435372693415	50
1	569	45.435372693415	51
1	582	46.468332842535	52
1	582	46.468332842535	53
1	619	49.076343465477	54
1	619	49.076343465477	55
1	637	51.035076515244	56
1	637	51.035076515244	57
1	647	52.263528261459	58
1	647	52.263528261459	59
1	666	54.209141051133	60
1	666	54.209141051133	61
1	691	55.276864077716	62
1	691	55.276864077716	63
1	709	56.545977526975	64
1	709	56.545977526975	65
1	740	59.005361120783	66
1	740	59.005361120783	67
1	758	60.928099290332	68
1	758	60.928099290332	69
1	779	62.833679050393	70
1	779	62.833679050393	71
1	812	64.130167479798	72
1	812	64.130167479798	73
1	825	65.137373642826	74
1	825	65.137373642826	75
1	869	66.354858459855	76
1	869	66.354858459855	77
1	875	67.568679710855	78
1	875	67.568679710855	79
1	916	69.588550650202	80
1	916	69.588550650202	81
1	922	70.720803043565	82
1	922	70.720803043565	83
1	940	72.318291173084	84
1	940	72.318291173084	85
1	958	73.96334213661	86
1	958	73.96334213661	87
1	981	75.910258536326	88
1	981	75.910258536326	89
1	1009	77.440652791873	90
1	1009	77.440652791873	91
1	1019	79.08007559157	92
1	1019	79.08007559157	93
1	1041	80.23844504351	94
1	1041	80.23844504351	95
1	1089	85.124343826817	96
1	1089	85.124343826817	97
1	1099	86.290182241226	98
1	1099	86.290182241226	99
1	1123	87.436182163576	100
1	1123	87.436182163576	101
1	1141	88.635178379687	102
1	1141	88.635178379687	103
1	1156	89.896234619608	104
1	1156	89.896234619608	105
1	1181	91.975006220481	106
1	1181	91.975006220481	107
1	1187	93.135261211096	108
1	1187	93.135261211096	109
1	1205	94.972420197387	110
1	1205	94.972420197387	111
1	1231	96.121648813693	112
1	1231	96.121648813693	113
1	1246	97.973667539784	114
1	1246	97.973667539784	115
1	1259	99.835429380306	116
1	1259	99.835429380306	117
1	1272	102.926258894297	118
1	1272	102.926258894297	119
1	1305	104.160733076618	120
1	1305	104.160733076618	121
1	1330	107.067843824147	122
1	1330	107.067843824147	123
1	1347	108.121066214876	124
1	1347	108.121066214876	125
1	1394	111.685179031605	126
1	1394	111.685179031605	127
1	1404	114.771349955794	128
1	1404	114.771349955794	129
1	1423	115.800039683062	130
1	1423	115.800039683062	131
1	1449	117.850273397781	132
1	1449	117.850273397781	133
1	1459	119.645707192285	134
1	1459	119.645707192285	135
1	1495	122.559903031203	136
1	1495	122.559903031203	137
1	1513	124.366851797568	138
1	1513	124.366851797568	139
1	1523	125.483506693669	140
1	1523	125.483506693669	141
1	1543	126.527264402662	142
1	1543	126.527264402662	143
1	1563	128.493400779976	144
1	1563	128.493400779976	145
1	1584	129.720349392215	146
1	1584	129.720349392215	147
1	1603	131.161950545788	148
1	1603	131.161950545788	149
1	1639	132.672188515246	150
1	1639	132.672188515246	151
1	1661	133.934920639042	152
1	1661	133.934920639042	153
1	1667	135.298068466758	154
1	1667	135.298068466758	155
1	1701	137.21951039763	156
1	1701	137.21951039763	157
1	1716	138.65791532102	158
1	1716	138.65791532102	159
1	1732	140.496988733388	160
1	1732	140.496988733388	161
1	1746	141.780712259037	162
1	1746	141.780712259037	163
1	1808	147.478029795603	164
1	1808	147.478029795603	165
1	1818	149.273789311212	166
1	1818	149.273789311212	167
1	1836	150.996783361843	168
1	1836	150.996783361843	169
1	1866	152.245461703589	170
1	1866	152.245461703589	171
1	1876	153.872173263006	172
1	1876	153.872173263006	173
1	1898	155.33859280484	174
1	1898	155.33859280484	175
1	1923	156.923378874693	176
1	1923	156.923378874693	177
1	1938	158.096499730114	178
1	1938	158.096499730114	179
1	1956	159.683673213413	180
1	1956	159.683673213413	181
1	1974	161.178386212479	182
1	1974	161.178386212479	183
1	1994	162.347945569011	184
1	1994	162.347945569011	185
1	2019	163.593013553617	186
1	2019	163.593013553617	187
1	2041	164.872355216577	188
1	2041	164.872355216577	189
1	2067	165.950097916273	190
1	2067	165.950097916273	191
1	2073	167.514875522398	192
1	2073	167.514875522398	193
1	2087	169.449960732398	194
1	2087	169.449960732398	195
1	2113	171.249761167462	196
1	2113	171.249761167462	197
1	2143	173.180856988907	198
1	2143	173.180856988907	199
1	2171	176.893638414365	200
1	2171	176.893638414365	201
1	2208	178.213070492987	202
1	2208	178.213070492987	203
1	2226	179.927027620156	204
1	2226	179.927027620156	205
1	2232	181.283904478466	206
1	2232	181.283904478466	207
1	2265	184.195734733496	208
1	2265	184.195734733496	209
1	2316	187.504242351129	210
1	2316	187.504242351129	211
1	2330	188.778362750711	212
1	2330	188.778362750711	213
1	2344	190.130301452811	214
1	2344	190.130301452811	215
1	2388	192.103190143173	216
1	2388	192.103190143173	217
1	2395	193.065607529179	218
1	2395	193.065607529179	219
1	2412	194.908287069438	220
1	2412	194.908287069438	221
1	2438	196.465564870693	222
1	2438	196.465564870693	223
1	2451	198.114615019251	224
1	2451	198.114615019251	225
1	2476	199.821615784129	226
1	2476	199.821615784129	227
1	2501	201.64856643637	228
1	2501	201.64856643637	229
1	2526	203.39224534304	230
1	2526	203.39224534304	231
1	2544	205.302396930301	232
1	2544	205.302396930301	233
1	2565	207.200833129795	234
1	2565	207.200833129795	235
1	2571	208.235137202882	236
1	2571	208.235137202882	237
1	2593	210.170516885672	238
1	2593	210.170516885672	239
1	2615	211.204759445	240
1	2615	211.204759445	241
1	2637	213.828370025635	242
1	2637	213.828370025635	243
1	2658	215.229315757631	244
1	2658	215.229315757631	245
1	2680	217.136774014406	246
1	2680	217.136774014406	247
1	2699	218.989360518447	248
1	2699	218.989360518447	249
1	2716	220.109002849717	250
1	2716	220.109002849717	251
1	2747	221.809310010177	252
1	2747	221.809310010177	253
1	2765	223.193235671012	254
1	2765	223.193235671012	255
1	2781	224.563993301954	256
1	2781	224.563993301954	257
1	2799	226.530074945847	258
1	2799	226.530074945847	259
1	2809	227.613281942083	260
1	2809	227.613281942083	261
1	2827	229.500298336603	262
1	2827	229.500298336603	263
1	2837	231.077529943839	264
1	2837	231.077529943839	265
1	2866	233.926381212338	266
1	2866	233.926381212338	267
1	2876	235.797832423281	268
1	2876	235.797832423281	269
1	2890	237.642699557031	270
1	2890	237.642699557031	271
1	2915	238.701135293306	272
1	2915	238.701135293306	273
2	7	0.127447623789	0
2	7	0.127447623789	1
2	7	0.127447623789	2
2	29	1.316617257702	3
2	29	1.316617257702	4
2	29	1.316617257702	5
2	53	5.667389573002	6
2	53	5.667389573002	7
2	53	5.667389573002	8
2	68	6.849591493737	9
2	68	6.849591493737	10
2	68	6.849591493737	11
2	86	8.421463949476	12
2	86	8.421463949476	13
2	86	8.421463949476	14
2	107	10.287682941396	15
2	107	10.287682941396	16
2	107	10.287682941396	17
2	129	11.548694548039	18
2	129	11.548694548039	19
2	129	11.548694548039	20
2	151	13.148053752794	21
2	151	13.148053752794	22
2	151	13.148053752794	23
2	183	14.444242931812	24
2	183	14.444242931812	25
2	183	14.444242931812	26
2	202	16.347644702383	27
2	202	16.347644702383	28
2	202	16.347644702383	29
2	227	18.226061121447	30
2	227	18.226061121447	31
2	227	18.226061121447	32
2	252	19.824079218563	33
2	252	19.824079218563	34
2	252	19.824079218563	35
2	265	22.583935210018	36
2	265	22.583935210018	37
2	265	22.583935210018	38
2	279	24.110931629112	39
2	279	24.110931629112	40
2	279	24.110931629112	41
2	304	25.130908144759	42
2	304	25.130908144759	43
2	304	25.130908144759	44
2	323	26.153412317834	45
2	323	26.153412317834	46
2	323	26.153412317834	47
2	340	27.822926248009	48
2	340	27.822926248009	49
2	340	27.822926248009	50
2	354	29.782740010133	51
2	354	29.782740010133	52
2	354	29.782740010133	53
2	402	33.017342974822	54
2	402	33.017342974822	55
2	402	33.017342974822	56
2	416	34.6274773837	57
2	416	34.6274773837	58
2	416	34.6274773837	59
2	434	35.627946503623	60
2	434	35.627946503623	61
2	434	35.627946503623	62
2	444	36.846652384	63
2	444	36.846652384	64
2	444	36.846652384	65
2	467	38.652008670473	66
2	467	38.652008670473	67
2	467	38.652008670473	68
2	489	40.365950709379	69
2	489	40.365950709379	70
2	489	40.365950709379	71
2	514	41.567252111141	72
2	514	41.567252111141	73
2	514	41.567252111141	74
2	525	42.92224708834	75
2	525	42.92224708834	76
2	525	42.92224708834	77
2	546	44.366847978674	78
2	546	44.366847978674	79
2	546	44.366847978674	80
2	575	45.445602479226	81
2	575	45.445602479226	82
2	575	45.445602479226	83
2	590	46.48455878395	84
2	590	46.48455878395	85
2	590	46.48455878395	86
2	604	47.948087667248	87
2	604	47.948087667248	88
2	604	47.948087667248	89
2	615	49.045037354848	90
2	615	49.045037354848	91
2	615	49.045037354848	92
2	630	51.022607441541	93
2	630	51.022607441541	94
2	630	51.022607441541	95
2	654	52.281788285421	96
2	654	52.281788285421	97
2	654	52.281788285421	98
2	672	54.223277565923	99
2	672	54.223277565923	100
2	672	54.223277565923	101
2	695	55.291308986083	102
2	695	55.291308986083	103
2	695	55.291308986083	104
2	713	56.555488335093	105
2	713	56.555488335093	106
2	713	56.555488335093	107
2	741	59.015307515407	108
2	741	59.015307515407	109
2	741	59.015307515407	110
2	762	60.94058762113	111
2	762	60.94058762113	112
2	762	60.94058762113	113
2	786	62.8582849537	114
2	786	62.8582849537	115
2	786	62.8582849537	116
2	804	64.116589966477	117
2	804	64.116589966477	118
2	804	64.116589966477	119
2	829	65.148301917885	120
2	829	65.148301917885	121
2	829	65.148301917885	122
2	854	66.311769624602	123
2	854	66.311769624602	124
2	854	66.311769624602	125
2	882	67.580894053916	126
2	882	67.580894053916	127
2	882	67.580894053916	128
2	909	69.550389455155	129
2	909	69.550389455155	130
2	909	69.550389455155	131
2	929	70.751946434343	132
2	929	70.751946434343	133
2	929	70.751946434343	134
2	947	72.334002639073	135
2	947	72.334002639073	136
2	947	72.334002639073	137
2	966	73.983575445905	138
2	966	73.983575445905	139
2	966	73.983575445905	140
2	986	75.920187406097	141
2	986	75.920187406097	142
2	986	75.920187406097	143
2	1002	77.419747469361	144
2	1002	77.419747469361	145
2	1002	77.419747469361	146
2	1022	79.10866048917	147
2	1022	79.10866048917	148
2	1022	79.10866048917	149
2	1044	80.251173181697	150
2	1044	80.251173181697	151
2	1044	80.251173181697	152
2	1055	81.955322536497	153
2	1055	81.955322536497	154
2	1055	81.955322536497	155
2	1084	85.099520631816	156
2	1084	85.099520631816	157
2	1084	85.099520631816	158
2	1106	86.305532134045	159
2	1106	86.305532134045	160
2	1106	86.305532134045	161
2	1133	88.618449955361	162
2	1133	88.618449955361	163
2	1133	88.618449955361	164
2	1155	89.896055746586	165
2	1155	89.896055746586	166
2	1155	89.896055746586	167
2	1177	91.960855017609	168
2	1177	91.960855017609	169
2	1177	91.960855017609	170
2	1190	93.15393266323	171
2	1190	93.15393266323	172
2	1190	93.15393266323	173
2	1208	94.987951202158	174
2	1208	94.987951202158	175
2	1208	94.987951202158	176
2	1227	96.098856211437	177
2	1227	96.098856211437	178
2	1227	96.098856211437	179
2	1252	97.990020105899	180
2	1252	97.990020105899	181
2	1252	97.990020105899	182
2	1262	99.845970031311	183
2	1262	99.845970031311	184
2	1262	99.845970031311	185
2	1276	102.942097967303	186
2	1276	102.942097967303	187
2	1276	102.942097967303	188
2	1301	104.144887574265	189
2	1301	104.144887574265	190
2	1301	104.144887574265	191
2	1326	107.051311025874	192
2	1326	107.051311025874	193
2	1326	107.051311025874	194
2	1350	108.137579450428	195
2	1350	108.137579450428	196
2	1350	108.137579450428	197
2	1376	109.847089062318	198
2	1376	109.847089062318	199
2	1376	109.847089062318	200
2	1410	114.790889775561	201
2	1410	114.790889775561	202
2	1410	114.790889775561	203
2	1422	115.796466788263	204
2	1422	115.796466788263	205
2	1422	115.796466788263	206
2	1445	117.826005625497	207
2	1445	117.826005625497	208
2	1445	117.826005625497	209
2	1473	119.684048364105	210
2	1473	119.684048364105	211
2	1473	119.684048364105	212
2	1484	121.148389543448	213
2	1484	121.148389543448	214
2	1484	121.148389543448	215
2	1498	122.572077890335	216
2	1498	122.572077890335	217
2	1498	122.572077890335	218
2	1516	124.381325710593	219
2	1516	124.381325710593	220
2	1516	124.381325710593	221
2	1526	125.494291712815	222
2	1526	125.494291712815	223
2	1526	125.494291712815	224
2	1542	126.5191731947	225
2	1542	126.5191731947	226
2	1542	126.5191731947	227
2	1570	128.506442612997	228
2	1570	128.506442612997	229
2	1570	128.506442612997	230
2	1588	129.733786355748	231
2	1588	129.733786355748	232
2	1588	129.733786355748	233
2	1613	131.190781886551	234
2	1613	131.190781886551	235
2	1613	131.190781886551	236
2	1628	132.654368464657	237
2	1628	132.654368464657	238
2	1628	132.654368464657	239
2	1650	133.880024155541	240
2	1650	133.880024155541	241
2	1650	133.880024155541	242
2	1671	135.313242240065	243
2	1671	135.313242240065	244
2	1671	135.313242240065	245
2	1694	137.201623955339	246
2	1694	137.201623955339	247
2	1694	137.201623955339	248
2	1711	138.641538353713	249
2	1711	138.641538353713	250
2	1711	138.641538353713	251
2	1735	140.507007991384	252
2	1735	140.507007991384	253
2	1735	140.507007991384	254
2	1749	141.8029285685	255
2	1749	141.8029285685	256
2	1749	141.8029285685	257
2	1800	147.462219198929	258
2	1800	147.462219198929	259
2	1800	147.462219198929	260
2	1825	149.294114568499	261
2	1825	149.294114568499	262
2	1825	149.294114568499	263
2	1839	151.011506738943	264
2	1839	151.011506738943	265
2	1839	151.011506738943	266
2	1859	152.231315097835	267
2	1859	152.231315097835	268
2	1859	152.231315097835	269
2	1880	153.8860280635	270
2	1880	153.8860280635	271
2	1880	153.8860280635	272
2	1905	155.356424371532	273
2	1905	155.356424371532	274
2	1905	155.356424371532	275
2	1926	156.938132440903	276
2	1926	156.938132440903	277
2	1926	156.938132440903	278
2	1937	158.092856428111	279
2	1937	158.092856428111	280
2	1937	158.092856428111	281
2	1960	159.68944048367	282
2	1960	159.68944048367	283
2	1960	159.68944048367	284
2	1981	161.19935149145	285
2	1981	161.19935149145	286
2	1981	161.19935149145	287
2	1998	162.373688329208	288
2	1998	162.373688329208	289
2	1998	162.373688329208	290
2	2023	163.603683526087	291
2	2023	163.603683526087	292
2	2023	163.603683526087	293
2	2045	164.884829065018	294
2	2045	164.884829065018	295
2	2045	164.884829065018	296
2	2063	165.931254669425	297
2	2063	165.931254669425	298
2	2063	165.931254669425	299
2	2077	167.530025944678	300
2	2077	167.530025944678	301
2	2077	167.530025944678	302
2	2090	169.472275153582	303
2	2090	169.472275153582	304
2	2090	169.472275153582	305
2	2115	171.250876655753	306
2	2115	171.250876655753	307
2	2115	171.250876655753	308
2	2139	173.15184193294	309
2	2139	173.15184193294	310
2	2139	173.15184193294	311
2	2153	174.9161462729	312
2	2153	174.9161462729	313
2	2153	174.9161462729	314
2	2174	176.934914788953	315
2	2174	176.934914788953	316
2	2174	176.934914788953	317
2	2200	178.190920352384	318
2	2200	178.190920352384	319
2	2200	178.190920352384	320
2	2222	179.914912730539	321
2	2222	179.914912730539	322
2	2222	179.914912730539	323
2	2235	181.301257326013	324
2	2235	181.301257326013	325
2	2235	181.301257326013	326
2	2276	184.226587537526	327
2	2276	184.226587537526	328
2	2276	184.226587537526	329
2	2290	185.661137079412	330
2	2290	185.661137079412	331
2	2290	185.661137079412	332
2	2312	187.490541338551	333
2	2312	187.490541338551	334
2	2312	187.490541338551	335
2	2333	188.801237947333	336
2	2333	188.801237947333	337
2	2333	188.801237947333	338
2	2347	190.154714145728	339
2	2347	190.154714145728	340
2	2347	190.154714145728	341
2	2381	192.077602104598	342
2	2381	192.077602104598	343
2	2381	192.077602104598	344
2	2399	193.075321532282	345
2	2399	193.075321532282	346
2	2399	193.075321532282	347
2	2415	194.92210572706	348
2	2415	194.92210572706	349
2	2415	194.92210572706	350
2	2458	198.139079390064	351
2	2458	198.139079390064	352
2	2458	198.139079390064	353
2	2480	199.843901540992	354
2	2480	199.843901540992	355
2	2480	199.843901540992	356
2	2505	201.66046433351	357
2	2505	201.66046433351	358
2	2505	201.66046433351	359
2	2529	203.412351607147	360
2	2529	203.412351607147	361
2	2529	203.412351607147	362
2	2555	205.364520766582	363
2	2555	205.364520766582	364
2	2555	205.364520766582	365
2	2578	208.253341819659	366
2	2578	208.253341819659	367
2	2578	208.253341819659	368
2	2596	210.192067178113	369
2	2596	210.192067178113	370
2	2596	210.192067178113	371
2	2618	211.25280966538	372
2	2618	211.25280966538	373
2	2618	211.25280966538	374
2	2644	213.839264646306	375
2	2644	213.839264646306	376
2	2644	213.839264646306	377
2	2661	215.246455745538	378
2	2661	215.246455745538	379
2	2661	215.246455745538	380
2	2683	217.151830609587	381
2	2683	217.151830609587	382
2	2683	217.151830609587	383
2	2704	218.998551280579	384
2	2704	218.998551280579	385
2	2704	218.998551280579	386
2	2720	220.133142785427	387
2	2720	220.133142785427	388
2	2720	220.133142785427	389
2	2742	221.79891853868	390
2	2742	221.79891853868	391
2	2742	221.79891853868	392
2	2766	223.197136918934	393
2	2766	223.197136918934	394
2	2766	223.197136918934	395
2	2788	224.583163838643	396
2	2788	224.583163838643	397
2	2788	224.583163838643	398
2	2802	226.540501805907	399
2	2802	226.540501805907	400
2	2802	226.540501805907	401
2	2817	227.638055734158	402
2	2817	227.638055734158	403
2	2817	227.638055734158	404
2	2840	231.088517146923	405
2	2840	231.088517146923	406
2	2840	231.088517146923	407
2	2862	233.911912133184	408
2	2862	233.911912133184	409
2	2862	233.911912133184	410
2	2879	235.8151225537	411
2	2879	235.8151225537	412
2	2879	235.8151225537	413
2	2898	237.671203532732	414
2	2898	237.671203532732	415
2	2898	237.671203532732	416
2	2918	238.715482684437	417
2	2918	238.715482684437	418
2	2918	238.715482684437	419
3	11	0.141312140479	0
3	11	0.141312140479	1
3	11	0.141312140479	2
3	23	1.304971063913	3
3	23	1.304971063913	4
3	23	1.304971063913	5
3	60	6.829363676919	6
3	60	6.829363676919	7
3	60	6.829363676919	8
3	83	8.411958469718	9
3	83	8.411958469718	10
3	83	8.411958469718	11
3	100	10.273120476127	12
3	100	10.273120476127	13
3	100	10.273120476127	14
3	128	11.545768918427	15
3	128	11.545768918427	16
3	128	11.545768918427	17
3	147	13.13799815431	18
3	147	13.13799815431	19
3	147	13.13799815431	20
3	175	14.410358970513	21
3	175	14.410358970513	22
3	175	14.410358970513	23
3	194	16.316303424611	24
3	194	16.316303424611	25
3	194	16.316303424611	26
3	220	18.190778518504	27
3	220	18.190778518504	28
3	220	18.190778518504	29
3	241	19.786551664539	30
3	241	19.786551664539	31
3	241	19.786551664539	32
3	275	24.09829043382	33
3	275	24.09829043382	34
3	275	24.09829043382	35
3	297	25.106902877461	36
3	297	25.106902877461	37
3	297	25.106902877461	38
3	319	26.137749126526	39
3	319	26.137749126526	40
3	319	26.137749126526	41
3	334	27.809911710036	42
3	334	27.809911710036	43
3	334	27.809911710036	44
3	366	29.861977929947	45
3	366	29.861977929947	46
3	366	29.861977929947	47
3	376	31.214310356517	48
3	376	31.214310356517	49
3	376	31.214310356517	50
3	387	32.947787456067	51
3	387	32.947787456067	52
3	387	32.947787456067	53
3	409	34.611834875249	54
3	409	34.611834875249	55
3	409	34.611834875249	56
3	448	36.872918945263	57
3	448	36.872918945263	58
3	448	36.872918945263	59
3	463	38.639413055257	60
3	463	38.639413055257	61
3	463	38.639413055257	62
3	485	40.352946677555	63
3	485	40.352946677555	64
3	485	40.352946677555	65
3	510	41.520926622309	66
3	510	41.520926622309	67
3	510	41.520926622309	68
3	522	42.917280740024	69
3	522	42.917280740024	70
3	522	42.917280740024	71
3	551	44.386236669717	72
3	551	44.386236669717	73
3	551	44.386236669717	74
3	568	45.427673698259	75
3	568	45.427673698259	76
3	568	45.427673698259	77
3	583	46.469024987657	78
3	583	46.469024987657	79
3	583	46.469024987657	80
3	600	47.926711388941	81
3	600	47.926711388941	82
3	600	47.926711388941	83
3	611	49.03368877375	84
3	611	49.03368877375	85
3	611	49.03368877375	86
3	625	51.005615652681	87
3	625	51.005615652681	88
3	625	51.005615652681	89
3	648	52.267242792232	90
3	648	52.267242792232	91
3	648	52.267242792232	92
3	665	54.20330578462	93
3	665	54.20330578462	94
3	665	54.20330578462	95
3	687	55.266421842226	96
3	687	55.266421842226	97
3	687	55.266421842226	98
3	708	56.545463480006	99
3	708	56.545463480006	100
3	708	56.545463480006	101
3	729	57.649067665838	102
3	729	57.649067665838	103
3	729	57.649067665838	104
3	736	58.99308264992	105
3	736	58.99308264992	106
3	736	58.99308264992	107
3	759	60.931716118498	108
3	759	60.931716118498	109
3	759	60.931716118498	110
3	782	62.846358004204	111
3	782	62.846358004204	112
3	782	62.846358004204	113
3	800	64.103436588062	114
3	800	64.103436588062	115
3	800	64.103436588062	116
3	826	65.146305034887	117
3	826	65.146305034887	118
3	826	65.146305034887	119
3	850	66.290760682662	120
3	850	66.290760682662	121
3	850	66.290760682662	122
3	876	67.569235073365	123
3	876	67.569235073365	124
3	876	67.569235073365	125
3	900	69.523785633611	126
3	900	69.523785633611	127
3	900	69.523785633611	128
3	923	70.725345779271	129
3	923	70.725345779271	130
3	923	70.725345779271	131
3	941	72.321925649627	132
3	941	72.321925649627	133
3	941	72.321925649627	134
3	959	73.963453941412	135
3	959	73.963453941412	136
3	959	73.963453941412	137
3	976	75.895448035316	138
3	976	75.895448035316	139
3	976	75.895448035316	140
3	997	77.406646967702	141
3	997	77.406646967702	142
3	997	77.406646967702	143
3	1026	79.120854747071	144
3	1026	79.120854747071	145
3	1026	79.120854747071	146
3	1051	81.943812165698	147
3	1051	81.943812165698	148
3	1051	81.943812165698	149
3	1076	85.065667991504	150
3	1076	85.065667991504	151
3	1076	85.065667991504	152
3	1098	86.289956848735	153
3	1098	86.289956848735	154
3	1098	86.289956848735	155
3	1129	88.605817137076	156
3	1129	88.605817137076	157
3	1129	88.605817137076	158
3	1151	89.884565193725	159
3	1151	89.884565193725	160
3	1151	89.884565193725	161
3	1169	91.925430751387	162
3	1169	91.925430751387	163
3	1169	91.925430751387	164
3	1194	93.175391836387	165
3	1194	93.175391836387	166
3	1194	93.175391836387	167
3	1212	95.002740697842	168
3	1212	95.002740697842	169
3	1212	95.002740697842	170
3	1223	96.085027034984	171
3	1223	96.085027034984	172
3	1223	96.085027034984	173
3	1245	97.973013224822	174
3	1245	97.973013224822	175
3	1245	97.973013224822	176
3	1273	102.932269120728	177
3	1273	102.932269120728	178
3	1273	102.932269120728	179
3	1297	104.129053336208	180
3	1297	104.129053336208	181
3	1297	104.129053336208	182
3	1322	107.030962064319	183
3	1322	107.030962064319	184
3	1322	107.030962064319	185
3	1358	108.164907597483	186
3	1358	108.164907597483	187
3	1358	108.164907597483	188
3	1372	109.830133213468	189
3	1372	109.830133213468	190
3	1372	109.830133213468	191
3	1403	114.767150158378	192
3	1403	114.767150158378	193
3	1403	114.767150158378	194
3	1417	115.779469662477	195
3	1417	115.779469662477	196
3	1417	115.779469662477	197
3	1441	117.809429197629	198
3	1441	117.809429197629	199
3	1441	117.809429197629	200
3	1455	119.621965668392	201
3	1455	119.621965668392	202
3	1455	119.621965668392	203
3	1480	121.128465885861	204
3	1480	121.128465885861	205
3	1480	121.128465885861	206
3	1502	122.599337400925	207
3	1502	122.599337400925	208
3	1502	122.599337400925	209
3	1530	125.532809641426	210
3	1530	125.532809641426	211
3	1530	125.532809641426	212
3	1537	126.502987473562	213
3	1537	126.502987473562	214
3	1537	126.502987473562	215
3	1562	128.485932031795	216
3	1562	128.485932031795	217
3	1562	128.485932031795	218
3	1587	129.732824880753	219
3	1587	129.732824880753	220
3	1587	129.732824880753	221
3	1602	131.158453329657	222
3	1602	131.158453329657	223
3	1602	131.158453329657	224
3	1623	132.630599841306	225
3	1623	132.630599841306	226
3	1623	132.630599841306	227
3	1645	133.857330447371	228
3	1645	133.857330447371	229
3	1645	133.857330447371	230
3	1670	135.310059539164	231
3	1670	135.310059539164	232
3	1670	135.310059539164	233
3	1689	137.186419668364	234
3	1689	137.186419668364	235
3	1689	137.186419668364	236
3	1707	138.631516238888	237
3	1707	138.631516238888	238
3	1707	138.631516238888	239
3	1728	140.482096365754	240
3	1728	140.482096365754	241
3	1728	140.482096365754	242
3	1753	141.821025912767	243
3	1753	141.821025912767	244
3	1753	141.821025912767	245
3	1771	143.503001689654	246
3	1771	143.503001689654	247
3	1771	143.503001689654	248
3	1785	146.140993057985	249
3	1785	146.140993057985	250
3	1785	146.140993057985	251
3	1796	147.428909158695	252
3	1796	147.428909158695	253
3	1796	147.428909158695	254
3	1819	149.274123514802	255
3	1819	149.274123514802	256
3	1819	149.274123514802	257
3	1843	151.030461951634	258
3	1843	151.030461951634	259
3	1843	151.030461951634	260
3	1854	152.211730020586	261
3	1854	152.211730020586	262
3	1854	152.211730020586	263
3	1879	153.885009860718	264
3	1879	153.885009860718	265
3	1879	153.885009860718	266
3	1899	155.338994789212	267
3	1899	155.338994789212	268
3	1899	155.338994789212	269
3	1933	158.08285254445	270
3	1933	158.08285254445	271
3	1933	158.08285254445	272
3	1955	159.677198217923	273
3	1955	159.677198217923	274
3	1955	159.677198217923	275
3	1973	161.174938812603	276
3	1973	161.174938812603	277
3	1973	161.174938812603	278
3	1997	162.367393096162	279
3	1997	162.367393096162	280
3	1997	162.367393096162	281
3	2020	163.595356250938	282
3	2020	163.595356250938	283
3	2020	163.595356250938	284
3	2042	164.877086599017	285
3	2042	164.877086599017	286
3	2042	164.877086599017	287
3	2059	165.916680102715	288
3	2059	165.916680102715	289
3	2059	165.916680102715	290
3	2076	167.529508647429	291
3	2076	167.529508647429	292
3	2076	167.529508647429	293
3	2102	169.516263186587	294
3	2102	169.516263186587	295
3	2102	169.516263186587	296
3	2109	171.239633958729	297
3	2109	171.239633958729	298
3	2109	171.239633958729	299
3	2127	173.113515619051	300
3	2127	173.113515619051	301
3	2127	173.113515619051	302
3	2149	174.904290670886	303
3	2149	174.904290670886	304
3	2149	174.904290670886	305
3	2178	176.946436772158	306
3	2178	176.946436772158	307
3	2178	176.946436772158	308
3	2196	178.176314206049	309
3	2196	178.176314206049	310
3	2196	178.176314206049	311
3	2218	179.9035991376	312
3	2218	179.9035991376	313
3	2218	179.9035991376	314
3	2236	181.310818146338	315
3	2236	181.310818146338	316
3	2236	181.310818146338	317
3	2254	182.428029214685	318
3	2254	182.428029214685	319
3	2254	182.428029214685	320
3	2266	184.196681793199	321
3	2266	184.196681793199	322
3	2266	184.196681793199	323
3	2286	185.637637533348	324
3	2286	185.637637533348	325
3	2286	185.637637533348	326
3	2308	187.475815798755	327
3	2308	187.475815798755	328
3	2308	187.475815798755	329
3	2337	188.828601611139	330
3	2337	188.828601611139	331
3	2337	188.828601611139	332
3	2352	190.169081827211	333
3	2352	190.169081827211	334
3	2352	190.169081827211	335
3	2369	192.032001614474	336
3	2369	192.032001614474	337
3	2369	192.032001614474	338
3	2394	193.058862303524	339
3	2394	193.058862303524	340
3	2394	193.058862303524	341
3	2427	194.966134663269	342
3	2427	194.966134663269	343
3	2427	194.966134663269	344
3	2437	196.461996048668	345
3	2437	196.461996048668	346
3	2437	196.461996048668	347
3	2454	198.12647964031	348
3	2454	198.12647964031	349
3	2454	198.12647964031	350
3	2479	199.835364326276	351
3	2479	199.835364326276	352
3	2479	199.835364326276	353
3	2504	201.660050517622	354
3	2504	201.660050517622	355
3	2504	201.660050517622	356
3	2530	203.413269368661	357
3	2530	203.413269368661	358
3	2530	203.413269368661	359
3	2547	205.32151963512	360
3	2547	205.32151963512	361
3	2547	205.32151963512	362
3	2572	208.241810357604	363
3	2572	208.241810357604	364
3	2572	208.241810357604	365
3	2597	210.201820062687	366
3	2597	210.201820062687	367
3	2597	210.201820062687	368
3	2622	211.280592918091	369
3	2622	211.280592918091	370
3	2622	211.280592918091	371
3	2636	213.825380244749	372
3	2636	213.825380244749	373
3	2636	213.825380244749	374
3	2665	215.268569930033	375
3	2665	215.268569930033	376
3	2665	215.268569930033	377
3	2687	217.187948015895	378
3	2687	217.187948015895	379
3	2687	217.187948015895	380
3	2698	218.987066250511	381
3	2698	218.987066250511	382
3	2698	218.987066250511	383
3	2719	220.129659032472	384
3	2719	220.129659032472	385
3	2719	220.129659032472	386
3	2738	221.788649535805	387
3	2738	221.788649535805	388
3	2738	221.788649535805	389
3	2760	223.178327931976	390
3	2760	223.178327931976	391
3	2760	223.178327931976	392
3	2782	224.572661422112	393
3	2782	224.572661422112	394
3	2782	224.572661422112	395
3	2810	227.620550645271	396
3	2810	227.620550645271	397
3	2810	227.620550645271	398
3	2830	229.513116704984	399
3	2830	229.513116704984	400
3	2830	229.513116704984	401
3	2844	231.104364775606	402
3	2844	231.104364775606	403
3	2844	231.104364775606	404
3	2854	233.887800297291	405
3	2854	233.887800297291	406
3	2854	233.887800297291	407
3	2893	237.652896222045	408
3	2893	237.652896222045	409
3	2893	237.652896222045	410
3	2930	238.767872690099	411
3	2930	238.767872690099	412
3	2930	238.767872690099	413
4	15	0.152589912208	0
4	15	0.152589912208	1
4	15	0.152589912208	2
4	33	1.330357836841	3
4	33	1.330357836841	4
4	33	1.330357836841	5
4	67	6.845962151766	6
4	67	6.845962151766	7
4	67	6.845962151766	8
4	90	8.427536698055	9
4	90	8.427536698055	10
4	90	8.427536698055	11
4	112	10.302148537467	12
4	112	10.302148537467	13
4	112	10.302148537467	14
4	136	11.570120823689	15
4	136	11.570120823689	16
4	136	11.570120823689	17
4	159	13.161036030546	18
4	159	13.161036030546	19
4	159	13.161036030546	20
4	179	14.424116944159	21
4	179	14.424116944159	22
4	179	14.424116944159	23
4	201	16.34135457106	24
4	201	16.34135457106	25
4	201	16.34135457106	26
4	226	18.225754635298	27
4	226	18.225754635298	28
4	226	18.225754635298	29
4	248	19.802783074781	30
4	248	19.802783074781	31
4	248	19.802783074781	32
4	280	24.11859935605	33
4	280	24.11859935605	34
4	280	24.11859935605	35
4	312	25.152123690309	36
4	312	25.152123690309	37
4	312	25.152123690309	38
4	344	27.833943305963	39
4	344	27.833943305963	40
4	344	27.833943305963	41
4	362	29.838179815796	42
4	362	29.838179815796	43
4	362	29.838179815796	44
4	380	31.252519829608	45
4	380	31.252519829608	46
4	380	31.252519829608	47
4	391	32.96768094297	48
4	391	32.96768094297	49
4	391	32.96768094297	50
4	417	34.637096557174	51
4	417	34.637096557174	52
4	417	34.637096557174	53
4	452	36.888629721371	54
4	452	36.888629721371	55
4	452	36.888629721371	56
4	468	38.65925725115	57
4	468	38.65925725115	58
4	468	38.65925725115	59
4	490	40.374736203355	60
4	490	40.374736203355	61
4	490	40.374736203355	62
4	529	42.931379884505	63
4	529	42.931379884505	64
4	529	42.931379884505	65
4	558	44.400290801663	66
4	558	44.400290801663	67
4	558	44.400290801663	68
4	589	46.482045773292	69
4	589	46.482045773292	70
4	589	46.482045773292	71
4	629	51.020363843305	72
4	629	51.020363843305	73
4	629	51.020363843305	74
4	655	52.291064422763	75
4	655	52.291064422763	76
4	655	52.291064422763	77
4	676	54.240663117422	78
4	676	54.240663117422	79
4	676	54.240663117422	80
4	694	55.289219264259	81
4	694	55.289219264259	82
4	694	55.289219264259	83
4	716	56.562238563018	84
4	716	56.562238563018	85
4	716	56.562238563018	86
4	751	59.048364227995	87
4	751	59.048364227995	88
4	751	59.048364227995	89
4	769	60.975060903387	90
4	769	60.975060903387	91
4	769	60.975060903387	92
4	787	62.867375823729	93
4	787	62.867375823729	94
4	787	62.867375823729	95
4	805	64.119564419645	96
4	805	64.119564419645	97
4	805	64.119564419645	98
4	836	65.161449931745	99
4	836	65.161449931745	100
4	836	65.161449931745	101
4	855	66.317616888483	102
4	855	66.317616888483	103
4	855	66.317616888483	104
4	883	67.583978772648	105
4	883	67.583978772648	106
4	883	67.583978772648	107
4	904	69.536563361988	108
4	904	69.536563361988	109
4	904	69.536563361988	110
4	930	70.761220255315	111
4	930	70.761220255315	112
4	930	70.761220255315	113
4	948	72.340364807466	114
4	948	72.340364807466	115
4	948	72.340364807466	116
4	965	73.975502607106	117
4	965	73.975502607106	118
4	965	73.975502607106	119
4	980	75.906380710166	120
4	980	75.906380710166	121
4	980	75.906380710166	122
4	1001	77.418926972023	123
4	1001	77.418926972023	124
4	1001	77.418926972023	125
4	1034	79.143395318545	126
4	1034	79.143395318545	127
4	1034	79.143395318545	128
4	1056	81.956563961195	129
4	1056	81.956563961195	130
4	1056	81.956563961195	131
4	1080	85.082187003876	132
4	1080	85.082187003876	133
4	1080	85.082187003876	134
4	1105	86.301027002623	135
4	1105	86.301027002623	136
4	1105	86.301027002623	137
4	1134	88.62026223639	138
4	1134	88.62026223639	139
4	1134	88.62026223639	140
4	1157	89.898186539036	141
4	1157	89.898186539036	142
4	1157	89.898186539036	143
4	1173	91.944183786498	144
4	1173	91.944183786498	145
4	1173	91.944183786498	146
4	1198	93.18757983159	147
4	1198	93.18757983159	148
4	1198	93.18757983159	149
4	1216	95.025740934964	150
4	1216	95.025740934964	151
4	1216	95.025740934964	152
4	1238	96.135022799106	153
4	1238	96.135022799106	154
4	1238	96.135022799106	155
4	1280	102.946065517578	156
4	1280	102.946065517578	157
4	1280	102.946065517578	158
4	1312	104.188732143898	159
4	1312	104.188732143898	160
4	1312	104.188732143898	161
4	1332	107.076458458696	162
4	1332	107.076458458696	163
4	1332	107.076458458696	164
4	1359	108.17477660281	165
4	1359	108.17477660281	166
4	1359	108.17477660281	167
4	1377	109.850933378904	168
4	1377	109.850933378904	169
4	1377	109.850933378904	170
4	1421	115.790480419339	171
4	1421	115.790480419339	172
4	1421	115.790480419339	173
4	1460	119.64778736319	174
4	1460	119.64778736319	175
4	1460	119.64778736319	176
4	1485	121.151224964654	177
4	1485	121.151224964654	178
4	1485	121.151224964654	179
4	1506	122.639945083521	180
4	1506	122.639945083521	181
4	1506	122.639945083521	182
4	1541	126.519126309603	183
4	1541	126.519126309603	184
4	1541	126.519126309603	185
4	1567	128.500723963783	186
4	1567	128.500723963783	187
4	1567	128.500723963783	188
4	1595	129.755440737711	189
4	1595	129.755440737711	190
4	1595	129.755440737711	191
4	1609	131.178789283478	192
4	1609	131.178789283478	193
4	1609	131.178789283478	194
4	1627	132.646322362321	195
4	1627	132.646322362321	196
4	1627	132.646322362321	197
4	1649	133.87804347278	198
4	1649	133.87804347278	199
4	1649	133.87804347278	200
4	1678	135.335528789795	201
4	1678	135.335528789795	202
4	1678	135.335528789795	203
4	1693	137.196802414787	204
4	1693	137.196802414787	205
4	1693	137.196802414787	206
4	1715	138.651861643753	207
4	1715	138.651861643753	208
4	1715	138.651861643753	209
4	1736	140.510156357914	210
4	1736	140.510156357914	211
4	1736	140.510156357914	212
4	1757	141.853848890133	213
4	1757	141.853848890133	214
4	1757	141.853848890133	215
4	1775	143.554319716864	216
4	1775	143.554319716864	217
4	1775	143.554319716864	218
4	1789	146.153525544209	219
4	1789	146.153525544209	220
4	1789	146.153525544209	221
4	1801	147.465015176955	222
4	1801	147.465015176955	223
4	1801	147.465015176955	224
4	1829	149.308073674444	225
4	1829	149.308073674444	226
4	1829	149.308073674444	227
4	1847	151.045859851265	228
4	1847	151.045859851265	229
4	1847	151.045859851265	230
4	1858	152.230057482616	231
4	1858	152.230057482616	232
4	1858	152.230057482616	233
4	1888	153.902378041667	234
4	1888	153.902378041667	235
4	1888	153.902378041667	236
4	1909	155.368112617183	237
4	1909	155.368112617183	238
4	1909	155.368112617183	239
4	1939	158.096917507988	240
4	1939	158.096917507988	241
4	1939	158.096917507988	242
4	1961	159.691377418979	243
4	1961	159.691377418979	244
4	1961	159.691377418979	245
4	1980	161.191651306213	246
4	1980	161.191651306213	247
4	1980	161.191651306213	248
4	2005	162.385730508188	249
4	2005	162.385730508188	250
4	2005	162.385730508188	251
4	2030	163.616070324419	252
4	2030	163.616070324419	253
4	2030	163.616070324419	254
4	2052	164.899026663228	255
4	2052	164.899026663228	256
4	2052	164.899026663228	257
4	2098	169.505500767424	258
4	2098	169.505500767424	259
4	2098	169.505500767424	260
4	2114	171.24995442686	261
4	2114	171.24995442686	262
4	2114	171.24995442686	263
4	2131	173.126868511625	264
4	2131	173.126868511625	265
4	2131	173.126868511625	266
4	2161	174.969457100009	267
4	2161	174.969457100009	268
4	2161	174.969457100009	269
4	2182	176.960066816199	270
4	2182	176.960066816199	271
4	2182	176.960066816199	272
4	2204	178.20280225787	273
4	2204	178.20280225787	274
4	2204	178.20280225787	275
4	2243	181.335058638604	276
4	2243	181.335058638604	277
4	2243	181.335058638604	278
4	2258	182.454282803844	279
4	2258	182.454282803844	280
4	2258	182.454282803844	281
4	2272	184.20687547913	282
4	2272	184.20687547913	283
4	2272	184.20687547913	284
4	2294	185.681156044902	285
4	2294	185.681156044902	286
4	2294	185.681156044902	287
4	2317	187.510217799247	288
4	2317	187.510217799247	289
4	2317	187.510217799247	290
4	2359	190.185668070206	291
4	2359	190.185668070206	292
4	2359	190.185668070206	293
4	2373	192.042718299386	294
4	2373	192.042718299386	295
4	2373	192.042718299386	296
4	2405	193.08775368774	297
4	2405	193.08775368774	298
4	2405	193.08775368774	299
4	2423	194.951284490096	300
4	2423	194.951284490096	301
4	2423	194.951284490096	302
4	2444	196.492437611755	303
4	2444	196.492437611755	304
4	2444	196.492437611755	305
4	2466	198.166221283109	306
4	2466	198.166221283109	307
4	2466	198.166221283109	308
4	2487	199.854611731903	309
4	2487	199.854611731903	310
4	2487	199.854611731903	311
4	2512	201.670875425193	312
4	2512	201.670875425193	313
4	2512	201.670875425193	314
4	2537	203.425178446322	315
4	2537	203.425178446322	316
4	2537	203.425178446322	317
4	2551	205.345919931568	318
4	2551	205.345919931568	319
4	2551	205.345919931568	320
4	2586	208.287241700143	321
4	2586	208.287241700143	322
4	2586	208.287241700143	323
4	2608	210.246925475005	324
4	2608	210.246925475005	325
4	2608	210.246925475005	326
4	2626	211.298613499094	327
4	2626	211.298613499094	328
4	2626	211.298613499094	329
4	2641	213.83615831544	330
4	2641	213.83615831544	331
4	2641	213.83615831544	332
4	2669	215.304764918364	333
4	2669	215.304764918364	334
4	2669	215.304764918364	335
4	2691	217.202489450875	336
4	2691	217.202489450875	337
4	2691	217.202489450875	338
4	2703	218.998161875715	339
4	2703	218.998161875715	340
4	2703	218.998161875715	341
4	2727	220.154520315716	342
4	2727	220.154520315716	343
4	2727	220.154520315716	344
4	2743	221.808897727768	345
4	2743	221.808897727768	346
4	2743	221.808897727768	347
4	2764	223.188875673041	348
4	2764	223.188875673041	349
4	2764	223.188875673041	350
4	2789	224.591049894757	351
4	2789	224.591049894757	352
4	2789	224.591049894757	353
4	2816	227.636192770307	354
4	2816	227.636192770307	355
4	2816	227.636192770307	356
4	2858	233.89783238479	357
4	2858	233.89783238479	358
4	2858	233.89783238479	359
4	2897	237.663682874569	360
4	2897	237.663682874569	361
4	2897	237.663682874569	362
4	2926	238.745142704646	363
4	2926	238.745142704646	364
4	2926	238.745142704646	365
5	37	1.342305640794	0
5	37	1.342305640794	1
5	37	1.342305640794	2
5	75	6.871743358951	3
5	75	6.871743358951	4
5	75	6.871743358951	5
5	111	10.300522195929	6
5	111	10.300522195929	7
5	111	10.300522195929	8
5	137	11.57111535376	9
5	137	11.57111535376	10
5	137	11.57111535376	11
5	156	13.160448174878	12
5	156	13.160448174878	13
5	156	13.160448174878	14
5	184	14.447526321378	15
5	184	14.447526321378	16
5	184	14.447526321378	17
5	210	16.360492010151	18
5	210	16.360492010151	19
5	210	16.360492010151	20
5	234	18.248953055308	21
5	234	18.248953055308	22
5	234	18.248953055308	23
5	290	24.142137823089	24
5	290	24.142137823089	25
5	290	24.142137823089	26
5	308	25.141444502215	27
5	308	25.141444502215	28
5	308	25.141444502215	29
5	358	29.824147035124	30
5	358	29.824147035124	31
5	358	29.824147035124	32
5	398	33.00253576503	33
5	398	33.00253576503	34
5	398	33.00253576503	35
5	421	34.641690888276	36
5	421	34.641690888276	37
5	421	34.641690888276	38
5	456	36.919884330013	39
5	456	36.919884330013	40
5	456	36.919884330013	41
5	472	38.663618299246	42
5	472	38.663618299246	43
5	472	38.663618299246	44
5	498	40.390789000666	45
5	498	40.390789000666	46
5	498	40.390789000666	47
5	533	42.932869115284	48
5	533	42.932869115284	49
5	533	42.932869115284	50
5	550	44.381396817969	51
5	550	44.381396817969	52
5	550	44.381396817969	53
5	640	51.060731615307	54
5	640	51.060731615307	55
5	640	51.060731615307	56
5	680	54.254571767262	57
5	680	54.254571767262	58
5	680	54.254571767262	59
5	747	59.028103928987	60
5	747	59.028103928987	61
5	747	59.028103928987	62
5	814	64.133753074973	63
5	814	64.133753074973	64
5	814	64.133753074973	65
5	841	65.175072182081	66
5	841	65.175072182081	67
5	841	65.175072182081	68
5	862	66.330057599302	69
5	862	66.330057599302	70
5	862	66.330057599302	71
5	887	67.592106340323	72
5	887	67.592106340323	73
5	887	67.592106340323	74
5	908	69.547198077878	75
5	908	69.547198077878	76
5	908	69.547198077878	77
5	1010	77.447370200209	78
5	1010	77.447370200209	79
5	1010	77.447370200209	80
5	1027	79.12359629023	81
5	1027	79.12359629023	82
5	1027	79.12359629023	83
5	1064	81.972379894069	84
5	1064	81.972379894069	85
5	1064	81.972379894069	86
5	1088	85.117525410679	87
5	1088	85.117525410679	88
5	1088	85.117525410679	89
5	1114	86.325338090824	90
5	1114	86.325338090824	91
5	1114	86.325338090824	92
5	1144	88.64898313591	93
5	1144	88.64898313591	94
5	1144	88.64898313591	95
5	1232	96.122579006043	96
5	1232	96.122579006043	97
5	1232	96.122579006043	98
5	1290	102.979126395588	99
5	1290	102.979126395588	100
5	1290	102.979126395588	101
5	1306	104.162884779583	102
5	1306	104.162884779583	103
5	1306	104.162884779583	104
5	1331	107.068871232291	105
5	1331	107.068871232291	106
5	1331	107.068871232291	107
5	1354	108.154199620321	108
5	1354	108.154199620321	109
5	1354	108.154199620321	110
5	1385	109.864745287291	111
5	1385	109.864745287291	112
5	1385	109.864745287291	113
5	1467	119.672059090397	114
5	1467	119.672059090397	115
5	1467	119.672059090397	116
5	1550	126.531764852967	117
5	1550	126.531764852967	118
5	1550	126.531764852967	119
5	1574	128.512000941361	120
5	1574	128.512000941361	121
5	1574	128.512000941361	122
5	1632	132.658184893454	123
5	1632	132.658184893454	124
5	1632	132.658184893454	125
5	1657	133.904491154857	126
5	1657	133.904491154857	127
5	1657	133.904491154857	128
5	1682	135.347790576864	129
5	1682	135.347790576864	130
5	1682	135.347790576864	131
5	1761	141.864139870334	132
5	1761	141.864139870334	133
5	1761	141.864139870334	134
5	1809	147.480364069744	135
5	1809	147.480364069744	136
5	1809	147.480364069744	137
5	1867	152.249889208337	138
5	1867	152.249889208337	139
5	1867	152.249889208337	140
5	1887	153.897385670304	141
5	1887	153.897385670304	142
5	1887	153.897385670304	143
5	1916	155.401469380456	144
5	1916	155.401469380456	145
5	1916	155.401469380456	146
5	1943	158.104549218577	147
5	1943	158.104549218577	148
5	1943	158.104549218577	149
5	2009	162.40047818412	150
5	2009	162.40047818412	151
5	2009	162.40047818412	152
5	2034	163.633796969575	153
5	2034	163.633796969575	154
5	2034	163.633796969575	155
5	2094	169.484392992465	156
5	2094	169.484392992465	157
5	2094	169.484392992465	158
5	2135	173.13901569864	159
5	2135	173.13901569864	160
5	2135	173.13901569864	161
5	2157	174.946993425887	162
5	2157	174.946993425887	163
5	2157	174.946993425887	164
5	2189	176.989574262473	165
5	2189	176.989574262473	166
5	2189	176.989574262473	167
5	2209	178.213508449613	168
5	2209	178.213508449613	169
5	2209	178.213508449613	170
5	2247	181.347300435844	171
5	2247	181.347300435844	172
5	2247	181.347300435844	173
5	2295	185.684104901209	174
5	2295	185.684104901209	175
5	2295	185.684104901209	176
5	2318	187.511733517554	177
5	2318	187.511733517554	178
5	2318	187.511733517554	179
5	2351	190.166764344558	180
5	2351	190.166764344558	181
5	2351	190.166764344558	182
5	2377	192.056948665293	183
5	2377	192.056948665293	184
5	2377	192.056948665293	185
5	2419	194.937038947466	186
5	2419	194.937038947466	187
5	2419	194.937038947466	188
5	2462	198.151053197979	189
5	2462	198.151053197979	190
5	2462	198.151053197979	191
5	2488	199.857855990715	192
5	2488	199.857855990715	193
5	2488	199.857855990715	194
5	2513	201.67189994288	195
5	2513	201.67189994288	196
5	2513	201.67189994288	197
5	2582	208.272286236891	198
5	2582	208.272286236891	199
5	2582	208.272286236891	200
5	2604	210.217757030038	201
5	2604	210.217757030038	202
5	2604	210.217757030038	203
5	2651	213.856196171677	204
5	2651	213.856196171677	205
5	2651	213.856196171677	206
5	2673	215.319109841962	207
5	2673	215.319109841962	208
5	2673	215.319109841962	209
5	2731	220.169401257343	210
5	2731	220.169401257343	211
5	2731	220.169401257343	212
5	2748	221.811653298496	213
5	2748	221.811653298496	214
5	2748	221.811653298496	215
5	2867	233.928746669748	216
5	2867	233.928746669748	217
5	2867	233.928746669748	218
5	2883	235.825356883868	219
5	2883	235.825356883868	220
5	2883	235.825356883868	221
5	2902	237.674592421933	222
5	2902	237.674592421933	223
5	2902	237.674592421933	224
5	2922	238.727167117143	225
5	2922	238.727167117143	226
5	2922	238.727167117143	227
6	119	10.347409450091	0
6	119	10.347409450091	1
6	166	13.178031847263	2
6	166	13.178031847263	3
6	206	16.356821489129	4
6	206	16.356821489129	5
6	287	24.131050722697	6
6	287	24.131050722697	7
6	367	29.867687802792	8
6	367	29.867687802792	9
6	395	32.986127022648	10
6	395	32.986127022648	11
6	501	40.398609282628	12
6	501	40.398609282628	13
6	562	44.417891899364	14
6	562	44.417891899364	15
6	702	55.308663319503	16
6	702	55.308663319503	17
6	723	56.579271789227	18
6	723	56.579271789227	19
6	773	60.996910422728	20
6	773	60.996910422728	21
6	794	62.882235673352	22
6	794	62.882235673352	23
6	813	64.131886306132	24
6	813	64.131886306132	25
6	840	65.171970600558	26
6	840	65.171970600558	27
6	863	66.337066850628	28
6	863	66.337066850628	29
6	891	67.596310396102	30
6	891	67.596310396102	31
6	985	75.919412271367	32
6	985	75.919412271367	33
6	1063	81.969796187505	34
6	1063	81.969796187505	35
6	1113	86.319183398404	36
6	1113	86.319183398404	37
6	1287	102.967833635482	38
6	1287	102.967833635482	39
6	1341	107.110121524839	40
6	1341	107.110121524839	41
6	1366	108.187368120889	42
6	1366	108.187368120889	43
6	1384	109.864305186784	44
6	1384	109.864305186784	45
6	1427	115.802948979289	46
6	1427	115.802948979289	47
6	1466	119.666309832524	48
6	1466	119.666309832524	49
6	1556	126.553263922331	50
6	1556	126.553263922331	51
6	1617	131.206993712831	52
6	1617	131.206993712831	53
6	1720	138.663442541326	54
6	1720	138.663442541326	55
6	1765	141.874518493438	56
6	1765	141.874518493438	57
6	1913	155.386503367155	58
6	1913	155.386503367155	59
6	1985	161.204302983348	60
6	1985	161.204302983348	61
6	2010	162.403108636403	62
6	2010	162.403108636403	63
6	2165	174.981375532095	64
6	2165	174.981375532095	65
6	2186	176.979275563494	66
6	2186	176.979275563494	67
6	2280	184.240666714221	68
6	2280	184.240666714221	69
6	2299	185.694087101717	70
6	2299	185.694087101717	71
6	2363	190.201333251268	72
6	2363	190.201333251268	73
6	2385	192.090342811737	74
6	2385	192.090342811737	75
6	2428	194.973693031257	76
6	2428	194.973693031257	77
6	2470	198.198747632677	78
6	2470	198.198747632677	79
6	2495	199.871185149292	80
6	2495	199.871185149292	81
6	2520	201.700405518789	82
6	2520	201.700405518789	83
6	2556	205.366196889426	84
6	2556	205.366196889426	85
6	2775	223.212430701006	86
6	2775	223.212430701006	87
6	2903	237.677414050565	88
6	2903	237.677414050565	89
7	704	55.318663319503	0
7	821	64.143753074973	1
7	846	65.185072182081	2
7	1116	86.329183398404	3
7	1434	115.812948979289	4
7	1469	119.676309832524	5
7	1555	126.541764852967	6
7	2037	163.643796969575	7
7	2304	185.704087101717	8
7	2380	192.066948665293	9
7	2472	198.208747632677	10
7	2872	233.938746669748	11

