version 2
run General-4-20230921-22:37:28-7196
attr configname General
attr datetime 20230921-22:37:28
attr experiment General
attr inifile omnetpp.ini
attr iterationvars ""
attr iterationvarsf ""
attr measurement ""
attr network Network3
attr processid 7196
attr repetition 4
attr replication #4
attr resultdir results
attr runnumber 4
attr seedset 4
param Network3.node[*].transmissionTime "uniform(1s, 2s)"
param Network3.node[*].delayTime "uniform(0.01s, 0.2s)"
param Network3.node[*].processingTime exponential(0.01s)
param Network3.node[0].lossProbability 0
param Network3.node[1].lossProbability 0.3
param Network3.node[2].lossProbability 0.3
param Network3.node[3].lossProbability "0.3 / 2"
param Network3.node[4].lossProbability "0.3 / 2"
param Network3.node[6].lossProbability "0.3 * 2"
param Network3.node[7].lossProbability "0.3 * 2"
param Network3.node[5].lossProbability "0.3 * 3"

vector 0 Network3.node[0] txVector ETV
vector 1 Network3.node[1] txVector ETV
vector 2 Network3.node[3] txVector ETV
vector 3 Network3.node[2] txVector ETV
vector 4 Network3.node[4] txVector ETV
vector 5 Network3.node[6] txVector ETV
vector 6 Network3.node[7] txVector ETV
vector 7 Network3.node[5] rxVector ETV
0	1	0.193735669288	0
0	1	0.193735669288	1
0	26	2.094357123985	2
0	26	2.094357123985	3
0	43	4.077757797358	4
0	43	4.077757797358	5
0	68	5.117538159402	6
0	68	5.117538159402	7
0	90	6.275761566978	8
0	90	6.275761566978	9
0	112	7.778294628175	10
0	112	7.778294628175	11
0	134	9.696677667243	12
0	134	9.696677667243	13
0	140	10.78133927953	14
0	140	10.78133927953	15
0	146	12.513932731622	16
0	146	12.513932731622	17
0	149	14.117496241736	18
0	149	14.117496241736	19
0	164	16.061446914836	20
0	164	16.061446914836	21
0	189	17.745470130039	22
0	189	17.745470130039	23
0	211	18.898498382108	24
0	211	18.898498382108	25
0	233	20.775291238833	26
0	233	20.775291238833	27
0	252	22.692803047519	28
0	252	22.692803047519	29
0	277	23.708774323497	30
0	277	23.708774323497	31
0	295	25.6446681576	32
0	295	25.6446681576	33
0	320	27.374222746274	34
0	320	27.374222746274	35
0	345	28.740558884262	36
0	345	28.740558884262	37
0	367	30.145772448431	38
0	367	30.145772448431	39
0	392	31.539908781571	40
0	392	31.539908781571	41
0	407	32.873365161398	42
0	407	32.873365161398	43
0	418	34.336214919498	44
0	418	34.336214919498	45
0	433	35.899368149617	46
0	433	35.899368149617	47
0	455	36.989960510672	48
0	455	36.989960510672	49
0	458	38.379010841639	50
0	458	38.379010841639	51
0	476	39.816034315543	52
0	476	39.816034315543	53
0	498	40.858932844519	54
0	498	40.858932844519	55
0	508	42.733995191443	56
0	508	42.733995191443	57
0	530	43.901725402025	58
0	530	43.901725402025	59
0	552	45.34708244602	60
0	552	45.34708244602	61
0	567	46.756518033955	62
0	567	46.756518033955	63
0	592	48.597572337527	64
0	592	48.597572337527	65
0	614	49.749061586492	66
0	614	49.749061586492	67
0	617	51.320295790367	68
0	617	51.320295790367	69
0	639	52.859743983409	70
0	639	52.859743983409	71
0	664	54.85017298201	72
0	664	54.85017298201	73
0	682	56.681500310468	74
0	682	56.681500310468	75
0	685	57.968778595252	76
0	685	57.968778595252	77
0	707	59.026359934283	78
0	707	59.026359934283	79
0	729	60.944543235626	80
0	729	60.944543235626	81
0	754	62.51750962545	82
0	754	62.51750962545	83
0	768	64.152400751755	84
0	768	64.152400751755	85
0	793	65.441255677183	86
0	793	65.441255677183	87
0	814	67.048762434319	88
0	814	67.048762434319	89
0	835	68.566362555994	90
0	835	68.566362555994	91
0	857	70.406601569539	92
0	857	70.406601569539	93
0	860	71.624554756953	94
0	860	71.624554756953	95
0	863	73.102905287332	96
0	863	73.102905287332	97
0	885	74.199755709776	98
0	885	74.199755709776	99
0	907	75.304677177145	100
0	907	75.304677177145	101
0	929	76.55603189363	102
0	929	76.55603189363	103
0	951	77.617411912343	104
0	951	77.617411912343	105
0	973	79.321908269467	106
0	973	79.321908269467	107
0	983	80.43598806734	108
0	983	80.43598806734	109
0	1008	82.367599167552	110
0	1008	82.367599167552	111
0	1022	84.086697661475	112
0	1022	84.086697661475	113
0	1047	85.725562135613	114
0	1047	85.725562135613	115
0	1072	87.002089087077	116
0	1072	87.002089087077	117
0	1090	88.838465687976	118
0	1090	88.838465687976	119
0	1111	89.986451267888	120
0	1111	89.986451267888	121
0	1117	91.491363604943	122
0	1117	91.491363604943	123
0	1127	92.821410247748	124
0	1127	92.821410247748	125
0	1152	94.060154901044	126
0	1152	94.060154901044	127
0	1170	95.206466507092	128
0	1170	95.206466507092	129
0	1191	96.28402567531	130
0	1191	96.28402567531	131
0	1209	98.127018378275	132
0	1209	98.127018378275	133
0	1220	99.445574806929	134
0	1220	99.445574806929	135
0	1231	100.516312793056	136
0	1231	100.516312793056	137
0	1249	102.328825489078	138
0	1249	102.328825489078	139
0	1252	103.870676945122	140
0	1252	103.870676945122	141
0	1274	105.147974438658	142
0	1274	105.147974438658	143
0	1292	106.273461038172	144
0	1292	106.273461038172	145
0	1310	107.812482118066	146
0	1310	107.812482118066	147
0	1324	109.31565093684	148
0	1324	109.31565093684	149
0	1338	111.006846585004	150
0	1338	111.006846585004	151
0	1363	112.804712119205	152
0	1363	112.804712119205	153
0	1373	114.411512591802	154
0	1373	114.411512591802	155
0	1398	116.057607134032	156
0	1398	116.057607134032	157
0	1423	117.145515841591	158
0	1423	117.145515841591	159
0	1444	118.827697383865	160
0	1444	118.827697383865	161
0	1465	120.06455146351	162
0	1465	120.06455146351	163
0	1487	121.303836406368	164
0	1487	121.303836406368	165
0	1508	122.662937260858	166
0	1508	122.662937260858	167
0	1530	124.201542681475	168
0	1530	124.201542681475	169
0	1552	125.457458000789	170
0	1552	125.457458000789	171
0	1574	126.665370246089	172
0	1574	126.665370246089	173
0	1599	127.685942544295	174
0	1599	127.685942544295	175
0	1610	129.507367919824	176
0	1610	129.507367919824	177
0	1632	130.814376987909	178
0	1632	130.814376987909	179
0	1638	131.932647039575	180
0	1638	131.932647039575	181
0	1660	133.713294106462	182
0	1660	133.713294106462	183
0	1685	134.972532660394	184
0	1685	134.972532660394	185
0	1699	136.352508699215	186
0	1699	136.352508699215	187
0	1721	138.285553106033	188
0	1721	138.285553106033	189
0	1743	140.278597445619	190
0	1743	140.278597445619	191
0	1765	141.863370481106	192
0	1765	141.863370481106	193
0	1787	143.649135325728	194
0	1787	143.649135325728	195
0	1812	145.116119864089	196
0	1812	145.116119864089	197
0	1818	146.828127251165	198
0	1818	146.828127251165	199
0	1840	148.661339826807	200
0	1840	148.661339826807	201
0	1862	149.674750848366	202
0	1862	149.674750848366	203
0	1884	151.126620340319	204
0	1884	151.126620340319	205
0	1906	152.997899271007	206
0	1906	152.997899271007	207
0	1909	154.878659434774	208
0	1909	154.878659434774	209
0	1931	156.433643594309	210
0	1931	156.433643594309	211
0	1949	158.062730029383	212
0	1949	158.062730029383	213
0	1952	160.010778404231	214
0	1952	160.010778404231	215
0	1962	161.954129774746	216
0	1962	161.954129774746	217
0	1980	163.597992533742	218
0	1980	163.597992533742	219
0	1986	165.589482831227	220
0	1986	165.589482831227	221
0	1997	166.937776480725	222
0	1997	166.937776480725	223
0	2022	168.275683698634	224
0	2022	168.275683698634	225
0	2032	169.659441681968	226
0	2032	169.659441681968	227
0	2057	171.333969457231	228
0	2057	171.333969457231	229
0	2060	172.553905944962	230
0	2060	172.553905944962	231
0	2085	173.809272987924	232
0	2085	173.809272987924	233
0	2110	175.442967813152	234
0	2110	175.442967813152	235
0	2124	176.913251731235	236
0	2124	176.913251731235	237
0	2146	178.048950676264	238
0	2146	178.048950676264	239
0	2171	179.234282968024	240
0	2171	179.234282968024	241
0	2174	180.487848354195	242
0	2174	180.487848354195	243
0	2189	182.05120014089	244
0	2189	182.05120014089	245
0	2208	183.431880671455	246
0	2208	183.431880671455	247
0	2222	185.359077679383	248
0	2222	185.359077679383	249
0	2244	186.792556253652	250
0	2244	186.792556253652	251
0	2250	188.461849314784	252
0	2250	188.461849314784	253
0	2268	190.432113439934	254
0	2268	190.432113439934	255
0	2290	192.327649247525	256
0	2290	192.327649247525	257
0	2293	194.222015915829	258
0	2293	194.222015915829	259
0	2314	195.571466594626	260
0	2314	195.571466594626	261
0	2332	196.975521411438	262
0	2332	196.975521411438	263
0	2357	198.499315773759	264
0	2357	198.499315773759	265
0	2363	200.342247804318	266
0	2363	200.342247804318	267
0	2369	201.555244235944	268
0	2369	201.555244235944	269
0	2372	202.620945942745	270
0	2372	202.620945942745	271
0	2390	204.460789361893	272
0	2390	204.460789361893	273
0	2415	206.438400799799	274
0	2415	206.438400799799	275
0	2418	208.417029278743	276
0	2418	208.417029278743	277
0	2433	209.982022164081	278
0	2433	209.982022164081	279
0	2455	211.949036233983	280
0	2455	211.949036233983	281
0	2469	212.958659805981	282
0	2469	212.958659805981	283
0	2491	214.202592118103	284
0	2491	214.202592118103	285
0	2497	215.922490436975	286
0	2497	215.922490436975	287
0	2515	217.012456587441	288
0	2515	217.012456587441	289
0	2540	218.954286933336	290
0	2540	218.954286933336	291
0	2562	220.706348402118	292
0	2562	220.706348402118	293
0	2565	222.170108858654	294
0	2565	222.170108858654	295
0	2583	223.285912578385	296
0	2583	223.285912578385	297
0	2608	224.290339431185	298
0	2608	224.290339431185	299
0	2629	225.461254707928	300
0	2629	225.461254707928	301
0	2654	226.930170715478	302
0	2654	226.930170715478	303
0	2676	228.093547378824	304
0	2676	228.093547378824	305
0	2694	229.425632956828	306
0	2694	229.425632956828	307
0	2715	230.482905439026	308
0	2715	230.482905439026	309
0	2733	232.125480568427	310
0	2733	232.125480568427	311
0	2751	234.023126662401	312
0	2751	234.023126662401	313
0	2769	235.077268948704	314
0	2769	235.077268948704	315
0	2794	236.18600978788	316
0	2794	236.18600978788	317
0	2819	237.321782330908	318
0	2819	237.321782330908	319
0	2837	238.631001220476	320
0	2837	238.631001220476	321
1	4	0.205631491707	0
1	4	0.205631491707	1
1	4	0.205631491707	2
1	29	2.106146503787	3
1	29	2.106146503787	4
1	29	2.106146503787	5
1	53	4.116762717374	6
1	53	4.116762717374	7
1	53	4.116762717374	8
1	79	5.165193898901	9
1	79	5.165193898901	10
1	79	5.165193898901	11
1	94	6.297366457147	12
1	94	6.297366457147	13
1	94	6.297366457147	14
1	115	7.79394783477	15
1	115	7.79394783477	16
1	115	7.79394783477	17
1	152	14.129274021345	18
1	152	14.129274021345	19
1	152	14.129274021345	20
1	167	16.078675840951	21
1	167	16.078675840951	22
1	167	16.078675840951	23
1	199	17.811449145311	24
1	199	17.811449145311	25
1	199	17.811449145311	26
1	221	18.96216428387	27
1	221	18.96216428387	28
1	221	18.96216428387	29
1	236	20.812128086645	30
1	236	20.812128086645	31
1	236	20.812128086645	32
1	256	22.710640121018	33
1	256	22.710640121018	34
1	256	22.710640121018	35
1	287	23.767913876949	36
1	287	23.767913876949	37
1	287	23.767913876949	38
1	298	25.663000169551	39
1	298	25.663000169551	40
1	298	25.663000169551	41
1	335	27.446525422617	42
1	335	27.446525422617	43
1	335	27.446525422617	44
1	356	28.780918266454	45
1	356	28.780918266454	46
1	356	28.780918266454	47
1	373	30.171352888807	48
1	373	30.171352888807	49
1	373	30.171352888807	50
1	395	31.571636131402	51
1	395	31.571636131402	52
1	395	31.571636131402	53
1	410	32.888895401497	54
1	410	32.888895401497	55
1	410	32.888895401497	56
1	421	34.348480978021	57
1	421	34.348480978021	58
1	421	34.348480978021	59
1	437	35.916865629817	60
1	437	35.916865629817	61
1	437	35.916865629817	62
1	464	38.409119268318	63
1	464	38.409119268318	64
1	464	38.409119268318	65
1	479	39.844279871903	66
1	479	39.844279871903	67
1	479	39.844279871903	68
1	511	42.748107707089	69
1	511	42.748107707089	70
1	511	42.748107707089	71
1	533	43.930180590804	72
1	533	43.930180590804	73
1	533	43.930180590804	74
1	555	45.378020407332	75
1	555	45.378020407332	76
1	555	45.378020407332	77
1	570	46.785238594507	78
1	570	46.785238594507	79
1	570	46.785238594507	80
1	595	48.612066227185	81
1	595	48.612066227185	82
1	595	48.612066227185	83
1	620	51.334731088131	84
1	620	51.334731088131	85
1	620	51.334731088131	86
1	642	52.87122350757	87
1	642	52.87122350757	88
1	642	52.87122350757	89
1	667	54.861940404312	90
1	667	54.861940404312	91
1	667	54.861940404312	92
1	689	57.982226261168	93
1	689	57.982226261168	94
1	689	57.982226261168	95
1	711	59.039806604083	96
1	711	59.039806604083	97
1	711	59.039806604083	98
1	732	60.957836471554	99
1	732	60.957836471554	100
1	732	60.957836471554	101
1	764	62.57762446356	102
1	764	62.57762446356	103
1	764	62.57762446356	104
1	771	64.163253215885	105
1	771	64.163253215885	106
1	771	64.163253215885	107
1	800	65.469264444108	108
1	800	65.469264444108	109
1	800	65.469264444108	110
1	817	67.069303644636	111
1	817	67.069303644636	112
1	817	67.069303644636	113
1	838	68.586929339591	114
1	838	68.586929339591	115
1	838	68.586929339591	116
1	867	73.119523478145	117
1	867	73.119523478145	118
1	867	73.119523478145	119
1	888	74.212352796843	120
1	888	74.212352796843	121
1	888	74.212352796843	122
1	910	75.315327079476	123
1	910	75.315327079476	124
1	910	75.315327079476	125
1	932	76.568471006896	126
1	932	76.568471006896	127
1	932	76.568471006896	128
1	954	77.628127247388	129
1	954	77.628127247388	130
1	954	77.628127247388	131
1	990	80.486652236686	132
1	990	80.486652236686	133
1	990	80.486652236686	134
1	1018	82.438395194123	135
1	1018	82.438395194123	136
1	1018	82.438395194123	137
1	1026	84.105504178778	138
1	1026	84.105504178778	139
1	1026	84.105504178778	140
1	1050	85.740860534002	141
1	1050	85.740860534002	142
1	1050	85.740860534002	143
1	1079	87.02911272125	144
1	1079	87.02911272125	145
1	1079	87.02911272125	146
1	1093	88.8499295301	147
1	1093	88.8499295301	148
1	1093	88.8499295301	149
1	1130	92.832168066346	150
1	1130	92.832168066346	151
1	1130	92.832168066346	152
1	1158	94.089994114636	153
1	1158	94.089994114636	154
1	1158	94.089994114636	155
1	1180	95.25463189779	156
1	1180	95.25463189779	157
1	1180	95.25463189779	158
1	1201	96.337157449201	159
1	1201	96.337157449201	160
1	1201	96.337157449201	161
1	1212	98.161247492835	162
1	1212	98.161247492835	163
1	1212	98.161247492835	164
1	1223	99.456477374143	165
1	1223	99.456477374143	166
1	1223	99.456477374143	167
1	1234	100.526974165035	168
1	1234	100.526974165035	169
1	1234	100.526974165035	170
1	1256	103.886022773289	171
1	1256	103.886022773289	172
1	1256	103.886022773289	173
1	1277	105.160156570044	174
1	1277	105.160156570044	175
1	1277	105.160156570044	176
1	1298	106.295821796524	177
1	1298	106.295821796524	178
1	1298	106.295821796524	179
1	1320	107.8760402113	180
1	1320	107.8760402113	181
1	1320	107.8760402113	182
1	1327	109.329295223497	183
1	1327	109.329295223497	184
1	1327	109.329295223497	185
1	1341	111.018857281248	186
1	1341	111.018857281248	187
1	1341	111.018857281248	188
1	1376	114.431220336647	189
1	1376	114.431220336647	190
1	1376	114.431220336647	191
1	1401	116.068048800443	192
1	1401	116.068048800443	193
1	1401	116.068048800443	194
1	1427	117.164864723654	195
1	1427	117.164864723654	196
1	1427	117.164864723654	197
1	1447	118.851264459869	198
1	1447	118.851264459869	199
1	1447	118.851264459869	200
1	1469	120.077875678545	201
1	1469	120.077875678545	202
1	1469	120.077875678545	203
1	1491	121.319612477308	204
1	1491	121.319612477308	205
1	1491	121.319612477308	206
1	1511	122.683932516598	207
1	1511	122.683932516598	208
1	1511	122.683932516598	209
1	1533	124.220821522715	210
1	1533	124.220821522715	211
1	1533	124.220821522715	212
1	1555	125.46936414103	213
1	1555	125.46936414103	214
1	1555	125.46936414103	215
1	1581	126.687383137791	216
1	1581	126.687383137791	217
1	1581	126.687383137791	218
1	1602	127.712890054616	219
1	1602	127.712890054616	220
1	1602	127.712890054616	221
1	1613	129.533339657518	222
1	1613	129.533339657518	223
1	1613	129.533339657518	224
1	1641	131.944124262502	225
1	1641	131.944124262502	226
1	1641	131.944124262502	227
1	1663	133.733750270742	228
1	1663	133.733750270742	229
1	1663	133.733750270742	230
1	1689	134.98914834594	231
1	1689	134.98914834594	232
1	1689	134.98914834594	233
1	1714	136.420429629463	234
1	1714	136.420429629463	235
1	1714	136.420429629463	236
1	1739	138.420351656496	237
1	1739	138.420351656496	238
1	1739	138.420351656496	239
1	1753	140.372440169212	240
1	1753	140.372440169212	241
1	1753	140.372440169212	242
1	1768	141.879887827576	243
1	1768	141.879887827576	244
1	1768	141.879887827576	245
1	1797	143.687136736467	246
1	1797	143.687136736467	247
1	1797	143.687136736467	248
1	1821	146.849597499482	249
1	1821	146.849597499482	250
1	1821	146.849597499482	251
1	1843	148.675713873648	252
1	1843	148.675713873648	253
1	1843	148.675713873648	254
1	1865	149.686909418143	255
1	1865	149.686909418143	256
1	1865	149.686909418143	257
1	1894	151.193021387612	258
1	1894	151.193021387612	259
1	1894	151.193021387612	260
1	1912	154.889454665889	261
1	1912	154.889454665889	262
1	1912	154.889454665889	263
1	1934	156.444320128646	264
1	1934	156.444320128646	265
1	1934	156.444320128646	266
1	1965	161.967467996387	267
1	1965	161.967467996387	268
1	1965	161.967467996387	269
1	1989	165.617992795151	270
1	1989	165.617992795151	271
1	1989	165.617992795151	272
1	2000	166.952600935901	273
1	2000	166.952600935901	274
1	2000	166.952600935901	275
1	2036	169.67247060739	276
1	2036	169.67247060739	277
1	2036	169.67247060739	278
1	2071	172.60578309193	279
1	2071	172.60578309193	280
1	2071	172.60578309193	281
1	2089	173.831448159611	282
1	2089	173.831448159611	283
1	2089	173.831448159611	284
1	2113	175.454893045861	285
1	2113	175.454893045861	286
1	2113	175.454893045861	287
1	2127	176.925262098694	288
1	2127	176.925262098694	289
1	2127	176.925262098694	290
1	2156	178.12217910152	291
1	2156	178.12217910152	292
1	2156	178.12217910152	293
1	2177	180.50594554846	294
1	2177	180.50594554846	295
1	2177	180.50594554846	296
1	2192	182.066922538735	297
1	2192	182.066922538735	298
1	2192	182.066922538735	299
1	2218	183.474033577198	300
1	2218	183.474033577198	301
1	2218	183.474033577198	302
1	2232	185.421480380725	303
1	2232	185.421480380725	304
1	2232	185.421480380725	305
1	2253	188.478968536597	306
1	2253	188.478968536597	307
1	2253	188.478968536597	308
1	2274	190.471670755011	309
1	2274	190.471670755011	310
1	2274	190.471670755011	311
1	2297	194.238073751565	312
1	2297	194.238073751565	313
1	2297	194.238073751565	314
1	2317	195.583245922981	315
1	2317	195.583245922981	316
1	2317	195.583245922981	317
1	2342	197.023671159429	318
1	2342	197.023671159429	319
1	2342	197.023671159429	320
1	2375	202.633677533223	321
1	2375	202.633677533223	322
1	2375	202.633677533223	323
1	2394	204.483502252858	324
1	2394	204.483502252858	325
1	2394	204.483502252858	326
1	2421	208.43083582365	327
1	2421	208.43083582365	328
1	2421	208.43083582365	329
1	2437	210.003490896534	330
1	2437	210.003490896534	331
1	2437	210.003490896534	332
1	2458	211.960066644642	333
1	2458	211.960066644642	334
1	2458	211.960066644642	335
1	2479	213.00808406065	336
1	2479	213.00808406065	337
1	2479	213.00808406065	338
1	2500	215.932804888865	339
1	2500	215.932804888865	340
1	2500	215.932804888865	341
1	2526	217.081618051951	342
1	2526	217.081618051951	343
1	2526	217.081618051951	344
1	2546	218.978114203765	345
1	2546	218.978114203765	346
1	2546	218.978114203765	347
1	2568	222.188053274049	348
1	2568	222.188053274049	349
1	2568	222.188053274049	350
1	2590	223.330177927446	351
1	2590	223.330177927446	352
1	2590	223.330177927446	353
1	2611	224.302150229195	354
1	2611	224.302150229195	355
1	2611	224.302150229195	356
1	2632	225.484138684025	357
1	2632	225.484138684025	358
1	2632	225.484138684025	359
1	2658	226.952700265425	360
1	2658	226.952700265425	361
1	2658	226.952700265425	362
1	2686	228.151761405668	363
1	2686	228.151761405668	364
1	2686	228.151761405668	365
1	2725	230.529094679165	366
1	2725	230.529094679165	367
1	2725	230.529094679165	368
1	2736	232.144769684976	369
1	2736	232.144769684976	370
1	2736	232.144769684976	371
1	2761	234.099117344453	372
1	2761	234.099117344453	373
1	2761	234.099117344453	374
1	2772	235.088148059832	375
1	2772	235.088148059832	376
1	2772	235.088148059832	377
1	2797	236.199462202852	378
1	2797	236.199462202852	379
1	2797	236.199462202852	380
1	2822	237.334298173298	381
1	2822	237.334298173298	382
1	2822	237.334298173298	383
1	2840	238.64549272449	384
1	2840	238.64549272449	385
1	2840	238.64549272449	386
2	8	0.218066095948	0
2	8	0.218066095948	1
2	8	0.218066095948	2
2	34	2.121033415895	3
2	34	2.121033415895	4
2	34	2.121033415895	5
2	57	4.145311506946	6
2	57	4.145311506946	7
2	57	4.145311506946	8
2	86	5.184781403074	9
2	86	5.184781403074	10
2	86	5.184781403074	11
2	105	6.333874651141	12
2	105	6.333874651141	13
2	105	6.333874651141	14
2	120	7.808354195298	15
2	120	7.808354195298	16
2	120	7.808354195298	17
2	156	14.143843231853	18
2	156	14.143843231853	19
2	156	14.143843231853	20
2	174	16.104128889404	21
2	174	16.104128889404	22
2	174	16.104128889404	23
2	203	17.822642729346	24
2	203	17.822642729346	25
2	203	17.822642729346	26
2	225	18.973736230771	27
2	225	18.973736230771	28
2	225	18.973736230771	29
2	241	20.830371322166	30
2	241	20.830371322166	31
2	241	20.830371322166	32
2	266	22.727649918432	33
2	266	22.727649918432	34
2	266	22.727649918432	35
2	291	23.80075070347	36
2	291	23.80075070347	37
2	291	23.80075070347	38
2	307	25.686472626761	39
2	307	25.686472626761	40
2	307	25.686472626761	41
2	334	27.441521237553	42
2	334	27.441521237553	43
2	334	27.441521237553	44
2	363	28.794007968114	45
2	363	28.794007968114	46
2	363	28.794007968114	47
2	382	30.194615010931	48
2	382	30.194615010931	49
2	382	30.194615010931	50
2	400	31.584259471311	51
2	400	31.584259471311	52
2	400	31.584259471311	53
2	414	32.905000742117	54
2	414	32.905000742117	55
2	414	32.905000742117	56
2	425	34.36638650187	57
2	425	34.36638650187	58
2	425	34.36638650187	59
2	447	35.964123256512	60
2	447	35.964123256512	61
2	447	35.964123256512	62
2	468	38.424447272139	63
2	468	38.424447272139	64
2	468	38.424447272139	65
2	484	39.864389568404	66
2	484	39.864389568404	67
2	484	39.864389568404	68
2	518	42.768416548006	69
2	518	42.768416548006	70
2	518	42.768416548006	71
2	548	43.97319107648	72
2	548	43.97319107648	73
2	548	43.97319107648	74
2	559	45.393576391372	75
2	559	45.393576391372	76
2	559	45.393576391372	77
2	574	46.796553547835	78
2	574	46.796553547835	79
2	574	46.796553547835	80
2	603	48.634930084298	81
2	603	48.634930084298	82
2	603	48.634930084298	83
2	627	51.351965260072	84
2	627	51.351965260072	85
2	627	51.351965260072	86
2	646	52.882282418995	87
2	646	52.882282418995	88
2	646	52.882282418995	89
2	671	54.875318754448	90
2	671	54.875318754448	91
2	671	54.875318754448	92
2	695	57.993824745076	93
2	695	57.993824745076	94
2	695	57.993824745076	95
2	718	59.056476859752	96
2	718	59.056476859752	97
2	718	59.056476859752	98
2	739	60.978471508646	99
2	739	60.978471508646	100
2	739	60.978471508646	101
2	779	64.180126015959	102
2	779	64.180126015959	103
2	779	64.180126015959	104
2	807	65.479467099578	105
2	807	65.479467099578	106
2	807	65.479467099578	107
2	821	67.083366837732	108
2	821	67.083366837732	109
2	821	67.083366837732	110
2	846	68.616499375061	111
2	846	68.616499375061	112
2	846	68.616499375061	113
2	873	73.130671378098	114
2	873	73.130671378098	115
2	873	73.130671378098	116
2	893	74.226617755133	117
2	893	74.226617755133	118
2	893	74.226617755133	119
2	915	75.337921066723	120
2	915	75.337921066723	121
2	915	75.337921066723	122
2	938	76.585293783221	123
2	938	76.585293783221	124
2	938	76.585293783221	125
2	958	77.659795376063	126
2	958	77.659795376063	127
2	958	77.659795376063	128
2	997	80.564381152653	129
2	997	80.564381152653	130
2	997	80.564381152653	131
2	1040	84.137926408845	132
2	1040	84.137926408845	133
2	1040	84.137926408845	134
2	1054	85.756704531908	135
2	1054	85.756704531908	136
2	1054	85.756704531908	137
2	1086	87.11271638009	138
2	1086	87.11271638009	139
2	1086	87.11271638009	140
2	1102	88.879456759276	141
2	1102	88.879456759276	142
2	1102	88.879456759276	143
2	1138	92.8577675202	144
2	1138	92.8577675202	145
2	1138	92.8577675202	146
2	1163	94.10590882083	147
2	1163	94.10590882083	148
2	1163	94.10590882083	149
2	1184	95.26814267361	150
2	1184	95.26814267361	151
2	1184	95.26814267361	152
2	1205	96.361885138156	153
2	1205	96.361885138156	154
2	1205	96.361885138156	155
2	1216	98.176450578778	156
2	1216	98.176450578778	157
2	1216	98.176450578778	158
2	1239	100.537695521479	159
2	1239	100.537695521479	160
2	1239	100.537695521479	161
2	1263	103.903433569115	162
2	1263	103.903433569115	163
2	1263	103.903433569115	164
2	1281	105.17032298259	165
2	1281	105.17032298259	166
2	1281	105.17032298259	167
2	1346	111.029030416638	168
2	1346	111.029030416638	169
2	1346	111.029030416638	170
2	1391	114.467065967042	171
2	1391	114.467065967042	172
2	1391	114.467065967042	173
2	1412	116.093744031741	174
2	1412	116.093744031741	175
2	1412	116.093744031741	176
2	1434	117.178103441849	177
2	1434	117.178103441849	178
2	1434	117.178103441849	179
2	1452	118.875756930205	180
2	1452	118.875756930205	181
2	1452	118.875756930205	182
2	1476	120.099427192834	183
2	1476	120.099427192834	184
2	1476	120.099427192834	185
2	1498	121.339181584077	186
2	1498	121.339181584077	187
2	1498	121.339181584077	188
2	1515	122.699176155394	189
2	1515	122.699176155394	190
2	1515	122.699176155394	191
2	1540	124.233496139942	192
2	1540	124.233496139942	193
2	1540	124.233496139942	194
2	1560	125.479610120304	195
2	1560	125.479610120304	196
2	1560	125.479610120304	197
2	1588	126.699905392083	198
2	1588	126.699905392083	199
2	1588	126.699905392083	200
2	1606	127.723355861407	201
2	1606	127.723355861407	202
2	1606	127.723355861407	203
2	1618	129.546932608408	204
2	1618	129.546932608408	205
2	1618	129.546932608408	206
2	1648	131.969685442169	207
2	1648	131.969685442169	208
2	1648	131.969685442169	209
2	1678	133.823513179046	210
2	1678	133.823513179046	211
2	1678	133.823513179046	212
2	1713	136.416670031034	213
2	1713	136.416670031034	214
2	1713	136.416670031034	215
2	1735	138.39320860955	216
2	1735	138.39320860955	217
2	1735	138.39320860955	218
2	1757	140.393218933698	219
2	1757	140.393218933698	220
2	1757	140.393218933698	221
2	1783	141.948231818638	222
2	1783	141.948231818638	223
2	1783	141.948231818638	224
2	1801	143.703715216207	225
2	1801	143.703715216207	226
2	1801	143.703715216207	227
2	1829	146.884405910015	228
2	1829	146.884405910015	229
2	1829	146.884405910015	230
2	1848	148.711663097185	231
2	1848	148.711663097185	232
2	1848	148.711663097185	233
2	1870	149.69767116122	234
2	1870	149.69767116122	235
2	1870	149.69767116122	236
2	1898	151.205022801185	237
2	1898	151.205022801185	238
2	1898	151.205022801185	239
2	1920	154.901158933438	240
2	1920	154.901158933438	241
2	1920	154.901158933438	242
2	1976	162.012922558735	243
2	1976	162.012922558735	244
2	1976	162.012922558735	245
2	2004	166.967913944874	246
2	2004	166.967913944874	247
2	2004	166.967913944874	248
2	2043	169.69756931211	249
2	2043	169.69756931211	250
2	2043	169.69756931211	251
2	2078	172.621134526976	252
2	2078	172.621134526976	253
2	2078	172.621134526976	254
2	2096	173.854310242862	255
2	2096	173.854310242862	256
2	2096	173.854310242862	257
2	2118	175.468281570058	258
2	2118	175.468281570058	259
2	2118	175.468281570058	260
2	2131	176.937208949944	261
2	2131	176.937208949944	262
2	2131	176.937208949944	263
2	2160	178.14607726974	264
2	2160	178.14607726974	265
2	2160	178.14607726974	266
2	2196	182.077802322279	267
2	2196	182.077802322279	268
2	2196	182.077802322279	269
2	2236	185.436636105589	270
2	2236	185.436636105589	271
2	2236	185.436636105589	272
2	2258	188.495079059898	273
2	2258	188.495079059898	274
2	2258	188.495079059898	275
2	2278	190.487054103248	276
2	2278	190.487054103248	277
2	2278	190.487054103248	278
2	2304	194.257337655116	279
2	2304	194.257337655116	280
2	2304	194.257337655116	281
2	2321	195.604971960933	282
2	2321	195.604971960933	283
2	2321	195.604971960933	284
2	2350	197.042492298888	285
2	2350	197.042492298888	286
2	2350	197.042492298888	287
2	2386	202.673007190346	288
2	2386	202.673007190346	289
2	2386	202.673007190346	290
2	2401	204.493909794576	291
2	2401	204.493909794576	292
2	2401	204.493909794576	293
2	2426	208.482039328261	294
2	2426	208.482039328261	295
2	2426	208.482039328261	296
2	2451	210.090144203233	297
2	2451	210.090144203233	298
2	2451	210.090144203233	299
2	2483	213.026961652062	300
2	2483	213.026961652062	301
2	2483	213.026961652062	302
2	2505	215.965293043645	303
2	2505	215.965293043645	304
2	2505	215.965293043645	305
2	2530	217.09074854503	306
2	2530	217.09074854503	307
2	2530	217.09074854503	308
2	2551	218.989911749131	309
2	2551	218.989911749131	310
2	2551	218.989911749131	311
2	2572	222.198497525049	312
2	2572	222.198497525049	313
2	2572	222.198497525049	314
2	2601	223.383810327007	315
2	2601	223.383810327007	316
2	2601	223.383810327007	317
2	2618	224.323522548368	318
2	2618	224.323522548368	319
2	2618	224.323522548368	320
2	2636	225.494527601885	321
2	2636	225.494527601885	322
2	2636	225.494527601885	323
2	2672	227.042119323055	324
2	2672	227.042119323055	325
2	2672	227.042119323055	326
2	2690	228.162521259646	327
2	2690	228.162521259646	328
2	2690	228.162521259646	329
2	2708	229.502851260455	330
2	2708	229.502851260455	331
2	2708	229.502851260455	332
2	2741	232.156390672431	333
2	2741	232.156390672431	334
2	2741	232.156390672431	335
2	2765	234.125125450141	336
2	2765	234.125125450141	337
2	2765	234.125125450141	338
2	2787	235.152883646697	339
2	2787	235.152883646697	340
2	2787	235.152883646697	341
2	2812	236.244735636708	342
2	2812	236.244735636708	343
2	2812	236.244735636708	344
2	2833	237.367281816125	345
2	2833	237.367281816125	346
2	2833	237.367281816125	347
2	2852	238.678246817718	348
2	2852	238.678246817718	349
2	2852	238.678246817718	350
3	9	0.223088800394	0
3	9	0.223088800394	1
3	30	2.113453601012	2
3	30	2.113453601012	3
3	46	4.093670008527	4
3	46	4.093670008527	5
3	71	5.129910337656	6
3	71	5.129910337656	7
3	93	6.288687570491	8
3	93	6.288687570491	9
3	119	7.806025267275	10
3	119	7.806025267275	11
3	137	9.707134419648	12
3	137	9.707134419648	13
3	143	10.807790787793	14
3	143	10.807790787793	15
3	168	16.079924860113	16
3	168	16.079924860113	17
3	192	17.761868494191	18
3	192	17.761868494191	19
3	214	18.921703400222	20
3	214	18.921703400222	21
3	255	22.703147695144	22
3	255	22.703147695144	23
3	280	23.724010421377	24
3	280	23.724010421377	25
3	303	25.676831106808	26
3	303	25.676831106808	27
3	323	27.395252331021	28
3	323	27.395252331021	29
3	348	28.750725094108	30
3	348	28.750725094108	31
3	370	30.156694813736	32
3	370	30.156694813736	33
3	436	35.911653623043	34
3	436	35.911653623043	35
3	461	38.39762016035	36
3	461	38.39762016035	37
3	501	40.878937466136	38
3	501	40.878937466136	39
3	512	42.753012861949	40
3	512	42.753012861949	41
3	541	43.956697294489	42
3	541	43.956697294489	43
3	575	46.803398814734	44
3	575	46.803398814734	45
3	596	48.613294645687	46
3	596	48.613294645687	47
3	621	51.337589921587	48
3	621	51.337589921587	49
3	655	52.897602171531	50
3	655	52.897602171531	51
3	679	54.892989759202	52
3	679	54.892989759202	53
3	688	57.981584758588	54
3	688	57.981584758588	55
3	710	59.037574082872	56
3	710	59.037574082872	57
3	733	60.960537879607	58
3	733	60.960537879607	59
3	757	62.533333907291	60
3	757	62.533333907291	61
3	772	64.165798916912	62
3	772	64.165798916912	63
3	796	65.452850387656	64
3	796	65.452850387656	65
3	832	67.119818524601	66
3	832	67.119818524601	67
3	866	73.113365001067	68
3	866	73.113365001067	69
3	892	74.224466402077	70
3	892	74.224466402077	71
3	936	76.582105614511	72
3	936	76.582105614511	73
3	959	77.663015734805	74
3	959	77.663015734805	75
3	976	79.341600530845	76
3	976	79.341600530845	77
3	986	80.463321764549	78
3	986	80.463321764549	79
3	1011	82.380707933135	80
3	1011	82.380707933135	81
3	1025	84.097109612209	82
3	1025	84.097109612209	83
3	1069	85.84683185769	84
3	1069	85.84683185769	85
3	1075	87.012495322552	86
3	1075	87.012495322552	87
3	1101	88.872713906545	88
3	1101	88.872713906545	89
3	1114	90.007068389478	90
3	1114	90.007068389478	91
3	1120	91.522824595961	92
3	1120	91.522824595961	93
3	1131	92.835395735246	94
3	1131	92.835395735246	95
3	1155	94.078673345834	96
3	1155	94.078673345834	97
3	1173	95.224104137396	98
3	1173	95.224104137396	99
3	1194	96.295111786357	100
3	1194	96.295111786357	101
3	1235	100.529159893971	102
3	1235	100.529159893971	103
3	1255	103.884304827398	104
3	1255	103.884304827398	105
3	1289	105.201393633006	106
3	1289	105.201393633006	107
3	1295	106.283933377477	108
3	1295	106.283933377477	109
3	1313	107.832469404032	110
3	1313	107.832469404032	111
3	1335	109.382405094975	112
3	1335	109.382405094975	113
3	1342	111.021049081465	114
3	1342	111.021049081465	115
3	1366	112.834428892334	116
3	1366	112.834428892334	117
3	1377	114.433032519288	118
3	1377	114.433032519288	119
3	1402	116.078043994974	120
3	1402	116.078043994974	121
3	1426	117.159228502243	122
3	1426	117.159228502243	123
3	1456	118.884997758936	124
3	1456	118.884997758936	125
3	1468	120.077295393057	126
3	1468	120.077295393057	127
3	1490	121.314227287555	128
3	1490	121.314227287555	129
3	1527	122.729398096023	130
3	1527	122.729398096023	131
3	1534	124.223151015256	132
3	1534	124.223151015256	133
3	1556	125.474624445637	134
3	1556	125.474624445637	135
3	1577	126.676123518302	136
3	1577	126.676123518302	137
3	1617	129.546162987944	138
3	1617	129.546162987944	139
3	1635	130.82653387116	140
3	1635	130.82653387116	141
3	1645	131.95720232531	142
3	1645	131.95720232531	143
3	1672	133.801726010789	144
3	1672	133.801726010789	145
3	1688	134.987712855057	146
3	1688	134.987712855057	147
3	1702	136.366501469712	148
3	1702	136.366501469712	149
3	1724	138.308302684402	150
3	1724	138.308302684402	151
3	1746	140.325237537316	152
3	1746	140.325237537316	153
3	1777	141.926939373182	154
3	1777	141.926939373182	155
3	1790	143.66332074116	156
3	1790	143.66332074116	157
3	1815	145.129944148761	158
3	1815	145.129944148761	159
3	1822	146.858553100026	160
3	1822	146.858553100026	161
3	1852	148.715211054688	162
3	1852	148.715211054688	163
3	1866	149.696863653164	164
3	1866	149.696863653164	165
3	1887	151.137959133327	166
3	1887	151.137959133327	167
3	1913	154.89106337458	168
3	1913	154.89106337458	169
3	1935	156.453865353418	170
3	1935	156.453865353418	171
3	1955	160.028268027433	172
3	1955	160.028268027433	173
3	1970	161.992944917567	174
3	1970	161.992944917567	175
3	1983	163.617427078811	176
3	1983	163.617427078811	177
3	2008	166.978351274035	178
3	2008	166.978351274035	179
3	2025	168.330731978366	180
3	2025	168.330731978366	181
3	2035	169.671310430727	182
3	2035	169.671310430727	183
3	2063	172.571347935209	184
3	2063	172.571347935209	185
3	2088	173.826029979077	186
3	2088	173.826029979077	187
3	2114	175.462020919235	188
3	2114	175.462020919235	189
3	2135	176.954285066446	190
3	2135	176.954285066446	191
3	2149	178.062356776669	192
3	2149	178.062356776669	193
3	2211	183.447228334639	194
3	2211	183.447228334639	195
3	2225	185.380863813547	196
3	2225	185.380863813547	197
3	2247	186.803476810865	198
3	2247	186.803476810865	199
3	2265	188.510672541093	200
3	2265	188.510672541093	201
3	2271	190.446695556544	202
3	2271	190.446695556544	203
3	2296	194.235400249236	204
3	2296	194.235400249236	205
3	2325	195.618061733498	206
3	2325	195.618061733498	207
3	2335	196.985942352932	208
3	2335	196.985942352932	209
3	2360	198.513201468211	210
3	2360	198.513201468211	211
3	2366	200.369707715073	212
3	2366	200.369707715073	213
3	2380	202.65992598128	214
3	2380	202.65992598128	215
3	2393	204.475664342858	216
3	2393	204.475664342858	217
3	2436	210.00174680544	218
3	2436	210.00174680544	219
3	2466	211.996243308788	220
3	2466	211.996243308788	221
3	2472	212.974824507652	222
3	2472	212.974824507652	223
3	2494	214.219030765822	224
3	2494	214.219030765822	225
3	2509	215.970531693085	226
3	2509	215.970531693085	227
3	2518	217.048728311636	228
3	2518	217.048728311636	229
3	2543	218.966187021823	230
3	2543	218.966187021823	231
3	2580	222.215533390658	232
3	2580	222.215533390658	233
3	2586	223.307234378476	234
3	2586	223.307234378476	235
3	2612	224.304112944683	236
3	2612	224.304112944683	237
3	2651	225.551399338651	238
3	2651	225.551399338651	239
3	2657	226.943063465129	240
3	2657	226.943063465129	241
3	2679	228.122914741457	242
3	2679	228.122914741457	243
3	2697	229.438810985236	244
3	2697	229.438810985236	245
3	2718	230.495844196437	246
3	2718	230.495844196437	247
3	2737	232.147179704202	248
3	2737	232.147179704202	249
3	2754	234.034782719641	250
3	2754	234.034782719641	251
3	2776	235.119483156898	252
3	2776	235.119483156898	253
3	2805	236.226693632505	254
3	2805	236.226693632505	255
3	2823	237.335878791245	256
3	2823	237.335878791245	257
3	2844	238.657582990464	258
3	2844	238.657582990464	259
4	10	0.227595799025	0
4	10	0.227595799025	1
4	10	0.227595799025	2
4	49	4.104449068138	3
4	49	4.104449068138	4
4	49	4.104449068138	5
4	74	5.15006068751	6
4	74	5.15006068751	7
4	74	5.15006068751	8
4	97	6.301603261451	9
4	97	6.301603261451	10
4	97	6.301603261451	11
4	121	7.815926602494	12
4	121	7.815926602494	13
4	121	7.815926602494	14
4	160	14.16930252883	15
4	160	14.16930252883	16
4	160	14.16930252883	17
4	175	16.106462423574	18
4	175	16.106462423574	19
4	175	16.106462423574	20
4	195	17.793566279452	21
4	195	17.793566279452	22
4	195	17.793566279452	23
4	217	18.945466635122	24
4	217	18.945466635122	25
4	217	18.945466635122	26
4	240	20.824301002597	27
4	240	20.824301002597	28
4	240	20.824301002597	29
4	259	22.713316284931	30
4	259	22.713316284931	31
4	259	22.713316284931	32
4	283	23.750661889507	33
4	283	23.750661889507	34
4	283	23.750661889507	35
4	302	25.674447567632	36
4	302	25.674447567632	37
4	302	25.674447567632	38
4	326	27.409146895062	39
4	326	27.409146895062	40
4	326	27.409146895062	41
4	351	28.763229996528	42
4	351	28.763229996528	43
4	351	28.763229996528	44
4	374	30.176157478027	45
4	374	30.176157478027	46
4	374	30.176157478027	47
4	399	31.583440781592	48
4	399	31.583440781592	49
4	399	31.583440781592	50
4	443	35.928805631344	51
4	443	35.928805631344	52
4	443	35.928805631344	53
4	469	38.425691401632	54
4	469	38.425691401632	55
4	469	38.425691401632	56
4	483	39.862658572234	57
4	483	39.862658572234	58
4	483	39.862658572234	59
4	504	40.910892958403	60
4	504	40.910892958403	61
4	504	40.910892958403	62
4	522	42.78499605806	63
4	522	42.78499605806	64
4	522	42.78499605806	65
4	537	43.945989478781	66
4	537	43.945989478781	67
4	537	43.945989478781	68
4	563	45.405976690262	69
4	563	45.405976690262	70
4	563	45.405976690262	71
4	580	46.811754208433	72
4	580	46.811754208433	73
4	580	46.811754208433	74
4	602	48.633663658066	75
4	602	48.633663658066	76
4	602	48.633663658066	77
4	628	51.357013737766	78
4	628	51.357013737766	79
4	628	51.357013737766	80
4	647	52.882529720421	81
4	647	52.882529720421	82
4	647	52.882529720421	83
4	672	54.877312824582	84
4	672	54.877312824582	85
4	672	54.877312824582	86
4	696	57.9945098627	87
4	696	57.9945098627	88
4	696	57.9945098627	89
4	714	59.047791120029	90
4	714	59.047791120029	91
4	714	59.047791120029	92
4	740	60.980724410274	93
4	740	60.980724410274	94
4	740	60.980724410274	95
4	760	62.56392120119	96
4	760	62.56392120119	97
4	760	62.56392120119	98
4	776	64.175697131653	99
4	776	64.175697131653	100
4	776	64.175697131653	101
4	799	65.466772248134	102
4	799	65.466772248134	103
4	799	65.466772248134	104
4	822	67.087777013994	105
4	822	67.087777013994	106
4	822	67.087777013994	107
4	842	68.600322753715	108
4	842	68.600322753715	109
4	842	68.600322753715	110
4	877	73.141906794607	111
4	877	73.141906794607	112
4	877	73.141906794607	113
4	899	74.248628841706	114
4	899	74.248628841706	115
4	899	74.248628841706	116
4	914	75.335572200817	117
4	914	75.335572200817	118
4	914	75.335572200817	119
4	937	76.583368269415	120
4	937	76.583368269415	121
4	937	76.583368269415	122
4	963	77.669856427861	123
4	963	77.669856427861	124
4	963	77.669856427861	125
4	979	79.360967636773	126
4	979	79.360967636773	127
4	979	79.360967636773	128
4	989	80.481941460228	129
4	989	80.481941460228	130
4	989	80.481941460228	131
4	1014	82.406046020314	132
4	1014	82.406046020314	133
4	1014	82.406046020314	134
4	1029	84.111912657	135
4	1029	84.111912657	136
4	1029	84.111912657	137
4	1065	85.81219465268	138
4	1065	85.81219465268	139
4	1065	85.81219465268	140
4	1078	87.02263525714	141
4	1078	87.02263525714	142
4	1078	87.02263525714	143
4	1097	88.862121395076	144
4	1097	88.862121395076	145
4	1097	88.862121395076	146
4	1123	91.533306688025	147
4	1123	91.533306688025	148
4	1123	91.533306688025	149
4	1137	92.848591924212	150
4	1137	92.848591924212	151
4	1137	92.848591924212	152
4	1162	94.101687598255	153
4	1162	94.101687598255	154
4	1162	94.101687598255	155
4	1176	95.235886726387	156
4	1176	95.235886726387	157
4	1176	95.235886726387	158
4	1197	96.311684962852	159
4	1197	96.311684962852	160
4	1197	96.311684962852	161
4	1227	99.497510853878	162
4	1227	99.497510853878	163
4	1227	99.497510853878	164
4	1242	100.539164038441	165
4	1242	100.539164038441	166
4	1242	100.539164038441	167
4	1259	103.895884376407	168
4	1259	103.895884376407	169
4	1259	103.895884376407	170
4	1282	105.18025071303	171
4	1282	105.18025071303	172
4	1282	105.18025071303	173
4	1299	106.301407223586	174
4	1299	106.301407223586	175
4	1299	106.301407223586	176
4	1316	107.861613756217	177
4	1316	107.861613756217	178
4	1316	107.861613756217	179
4	1331	109.351301808636	180
4	1331	109.351301808636	181
4	1331	109.351301808636	182
4	1349	111.038401209078	183
4	1349	111.038401209078	184
4	1349	111.038401209078	185
4	1369	112.864007660388	186
4	1369	112.864007660388	187
4	1369	112.864007660388	188
4	1381	114.441719643672	189
4	1381	114.441719643672	190
4	1381	114.441719643672	191
4	1406	116.078289139834	192
4	1406	116.078289139834	193
4	1406	116.078289139834	194
4	1430	117.173713307407	195
4	1430	117.173713307407	196
4	1430	117.173713307407	197
4	1451	118.87374830196	198
4	1451	118.87374830196	199
4	1451	118.87374830196	200
4	1475	120.0922998015	201
4	1475	120.0922998015	202
4	1475	120.0922998015	203
4	1497	121.329993498016	204
4	1497	121.329993498016	205
4	1497	121.329993498016	206
4	1516	122.702753429224	207
4	1516	122.702753429224	208
4	1516	122.702753429224	209
4	1544	124.244013106089	210
4	1544	124.244013106089	211
4	1544	124.244013106089	212
4	1561	125.484325992161	213
4	1561	125.484325992161	214
4	1561	125.484325992161	215
4	1580	126.687153360486	216
4	1580	126.687153360486	217
4	1580	126.687153360486	218
4	1625	129.562142154176	219
4	1625	129.562142154176	220
4	1625	129.562142154176	221
4	1649	131.970215334048	222
4	1649	131.970215334048	223
4	1649	131.970215334048	224
4	1667	133.779391438169	225
4	1667	133.779391438169	226
4	1667	133.779391438169	227
4	1695	135.004408964571	228
4	1695	135.004408964571	229
4	1695	135.004408964571	230
4	1705	136.376772955174	231
4	1705	136.376772955174	232
4	1705	136.376772955174	233
4	1727	138.324838141542	234
4	1727	138.324838141542	235
4	1727	138.324838141542	236
4	1749	140.342765773203	237
4	1749	140.342765773203	238
4	1749	140.342765773203	239
4	1772	141.91114658777	240
4	1772	141.91114658777	241
4	1772	141.91114658777	242
4	1793	143.674573897012	243
4	1793	143.674573897012	244
4	1793	143.674573897012	245
4	1828	146.876571849028	246
4	1828	146.876571849028	247
4	1828	146.876571849028	248
4	1847	148.702148678871	249
4	1847	148.702148678871	250
4	1847	148.702148678871	251
4	1876	149.71118770441	252
4	1876	149.71118770441	253
4	1876	149.71118770441	254
4	1890	151.181099045751	255
4	1890	151.181099045751	256
4	1890	151.181099045751	257
4	1917	154.899801151188	258
4	1917	154.899801151188	259
4	1917	154.899801151188	260
4	1941	156.467791638601	261
4	1941	156.467791638601	262
4	1941	156.467791638601	263
4	1958	160.041259612227	264
4	1958	160.041259612227	265
4	1958	160.041259612227	266
4	1969	161.983641627256	267
4	1969	161.983641627256	268
4	1969	161.983641627256	269
4	1993	165.63533248309	270
4	1993	165.63533248309	271
4	1993	165.63533248309	272
4	2014	167.00698268505	273
4	2014	167.00698268505	274
4	2014	167.00698268505	275
4	2028	168.344818497564	276
4	2028	168.344818497564	277
4	2028	168.344818497564	278
4	2042	169.69560714042	279
4	2042	169.69560714042	280
4	2042	169.69560714042	281
4	2066	172.589167320518	282
4	2066	172.589167320518	283
4	2066	172.589167320518	284
4	2095	173.848927543527	285
4	2095	173.848927543527	286
4	2095	173.848927543527	287
4	2136	176.956141595318	288
4	2136	176.956141595318	289
4	2136	176.956141595318	290
4	2152	178.082699891381	291
4	2152	178.082699891381	292
4	2152	178.082699891381	293
4	2181	180.524286069221	294
4	2181	180.524286069221	295
4	2181	180.524286069221	296
4	2201	182.088115882169	297
4	2201	182.088115882169	298
4	2201	182.088115882169	299
4	2214	183.460571652676	300
4	2214	183.460571652676	301
4	2214	183.460571652676	302
4	2228	185.406047193003	303
4	2228	185.406047193003	304
4	2228	185.406047193003	305
4	2257	188.489440948991	306
4	2257	188.489440948991	307
4	2257	188.489440948991	308
4	2282	190.499024209176	309
4	2282	190.499024209176	310
4	2282	190.499024209176	311
4	2303	194.251825858771	312
4	2303	194.251825858771	313
4	2303	194.251825858771	314
4	2328	195.646592076293	315
4	2328	195.646592076293	316
4	2328	195.646592076293	317
4	2338	196.998324463647	318
4	2338	196.998324463647	319
4	2338	196.998324463647	320
4	2379	202.657362336147	321
4	2379	202.657362336147	322
4	2379	202.657362336147	323
4	2397	204.491833991057	324
4	2397	204.491833991057	325
4	2397	204.491833991057	326
4	2425	208.476478632585	327
4	2425	208.476478632585	328
4	2425	208.476478632585	329
4	2440	210.012016800918	330
4	2440	210.012016800918	331
4	2440	210.012016800918	332
4	2462	211.984078632888	333
4	2462	211.984078632888	334
4	2462	211.984078632888	335
4	2475	212.98873265491	336
4	2475	212.98873265491	337
4	2475	212.98873265491	338
4	2504	215.955625481083	339
4	2504	215.955625481083	340
4	2504	215.955625481083	341
4	2521	217.068069157474	342
4	2521	217.068069157474	343
4	2521	217.068069157474	344
4	2547	218.981671380606	345
4	2547	218.981671380606	346
4	2547	218.981671380606	347
4	2573	222.202971004178	348
4	2573	222.202971004178	349
4	2573	222.202971004178	350
4	2589	223.329621258616	351
4	2589	223.329621258616	352
4	2589	223.329621258616	353
4	2625	224.344788139982	354
4	2625	224.344788139982	355
4	2625	224.344788139982	356
4	2640	225.505651480158	357
4	2640	225.505651480158	358
4	2640	225.505651480158	359
4	2664	226.963445131061	360
4	2664	226.963445131061	361
4	2664	226.963445131061	362
4	2682	228.134440499673	363
4	2682	228.134440499673	364
4	2682	228.134440499673	365
4	2700	229.452217633721	366
4	2700	229.452217633721	367
4	2700	229.452217633721	368
4	2721	230.517367539222	369
4	2721	230.517367539222	370
4	2721	230.517367539222	371
4	2747	232.168036459025	372
4	2747	232.168036459025	373
4	2747	232.168036459025	374
4	2757	234.04524161987	375
4	2757	234.04524161987	376
4	2757	234.04524161987	377
4	2777	235.125044960416	378
4	2777	235.125044960416	379
4	2777	235.125044960416	380
4	2801	236.215929895288	381
4	2801	236.215929895288	382
4	2801	236.215929895288	383
4	2829	237.352427711058	384
4	2829	237.352427711058	385
4	2829	237.352427711058	386
4	2845	238.66331122532	387
4	2845	238.66331122532	388
4	2845	238.66331122532	389
5	14	0.230608645336	0
5	14	0.230608645336	1
5	40	2.147696785028	2
5	40	2.147696785028	3
5	61	4.162817338375	4
5	61	4.162817338375	5
5	186	16.140263658735	6
5	186	16.140263658735	7
5	270	22.744035903534	8
5	270	22.744035903534	9
5	314	25.711924698166	10
5	314	25.711924698166	11
5	339	27.452474355362	12
5	339	27.452474355362	13
5	389	30.209857197867	14
5	389	30.209857197867	15
5	491	39.876091903996	16
5	491	39.876091903996	17
5	589	46.834768375671	18
5	589	46.834768375671	19
5	654	52.892938875657	20
5	654	52.892938875657	21
5	748	60.995226695013	22
5	748	60.995226695013	23
5	786	64.198294442032	24
5	786	64.198294442032	25
5	811	65.490764060184	26
5	811	65.490764060184	27
5	826	67.095793417859	28
5	826	67.095793417859	29
5	854	68.643116095648	30
5	854	68.643116095648	31
5	922	75.362795799863	32
5	922	75.362795799863	33
5	1005	80.595552041333	34
5	1005	80.595552041333	35
5	1044	84.163549732226	36
5	1044	84.163549732226	37
5	1058	85.779768162295	38
5	1058	85.779768162295	39
5	1108	88.894053338744	40
5	1108	88.894053338744	41
5	1146	92.881961003873	42
5	1146	92.881961003873	43
5	1188	95.302428103381	44
5	1188	95.302428103381	45
5	1356	111.057023456223	46
5	1356	111.057023456223	47
5	1395	114.478449322271	48
5	1395	114.478449322271	49
5	1417	116.112033243809	50
5	1417	116.112033243809	51
5	1441	117.202411931152	52
5	1441	117.202411931152	53
5	1460	118.886640054211	54
5	1460	118.886640054211	55
5	1505	121.351118332182	56
5	1505	121.351118332182	57
5	1596	126.721022258943	58
5	1596	126.721022258943	59
5	1682	133.867503577703	60
5	1682	133.867503577703	61
5	1805	143.718331439199	62
5	1805	143.718331439199	63
5	2009	166.980925609842	64
5	2009	166.980925609842	65
5	2050	169.712023107259	66
5	2050	169.712023107259	67
5	2082	172.644595843956	68
5	2082	172.644595843956	69
5	2103	173.866693292464	70
5	2103	173.866693292464	71
5	2165	178.168023317118	72
5	2165	178.168023317118	73
5	2311	194.299586589561	74
5	2311	194.299586589561	75
5	2354	197.056758066014	76
5	2354	197.056758066014	77
5	2408	204.504278893893	78
5	2408	204.504278893893	79
5	2537	217.106441733798	80
5	2537	217.106441733798	81
5	2605	223.398260111479	82
5	2605	223.398260111479	83
5	2622	224.333930835342	84
5	2622	224.333930835342	85
5	2645	225.521150650353	86
5	2645	225.521150650353	87
5	2712	229.522611661522	88
5	2712	229.522611661522	89
5	2791	235.165472182468	90
5	2791	235.165472182468	91
5	2816	236.256205666741	92
5	2816	236.256205666741	93
6	22	0.252709066794	0
6	22	0.252709066794	1
6	22	0.252709066794	2
6	64	4.183048854324	3
6	64	4.183048854324	4
6	64	4.183048854324	5
6	78	5.164766620481	6
6	78	5.164766620481	7
6	78	5.164766620481	8
6	104	6.328258315559	9
6	104	6.328258315559	10
6	104	6.328258315559	11
6	130	7.84566044532	12
6	130	7.84566044532	13
6	130	7.84566044532	14
6	182	16.125122848461	15
6	182	16.125122848461	16
6	182	16.125122848461	17
6	207	17.834790008444	18
6	207	17.834790008444	19
6	207	17.834790008444	20
6	229	18.997728490207	21
6	229	18.997728490207	22
6	229	18.997728490207	23
6	245	20.836913311367	24
6	245	20.836913311367	25
6	245	20.836913311367	26
6	271	22.747716709959	27
6	271	22.747716709959	28
6	271	22.747716709959	29
6	313	25.708127242198	30
6	313	25.708127242198	31
6	313	25.708127242198	32
6	330	27.428229076285	33
6	330	27.428229076285	34
6	330	27.428229076285	35
6	355	28.776197963675	36
6	355	28.776197963675	37
6	355	28.776197963675	38
6	381	30.190249941628	39
6	381	30.190249941628	40
6	381	30.190249941628	41
6	429	34.378425566769	42
6	429	34.378425566769	43
6	429	34.378425566769	44
6	451	35.987483485669	45
6	451	35.987483485669	46
6	451	35.987483485669	47
6	494	39.917238367606	48
6	494	39.917238367606	49
6	494	39.917238367606	50
6	526	42.795211664151	51
6	526	42.795211664151	52
6	526	42.795211664151	53
6	542	43.960379748846	54
6	542	43.960379748846	55
6	542	43.960379748846	56
6	579	46.807598260225	57
6	579	46.807598260225	58
6	579	46.807598260225	59
6	610	48.653962155682	60
6	610	48.653962155682	61
6	610	48.653962155682	62
6	635	51.376413347851	63
6	635	51.376413347851	64
6	635	51.376413347851	65
6	660	52.911136067867	66
6	660	52.911136067867	67
6	660	52.911136067867	68
6	703	58.014294656006	69
6	703	58.014294656006	70
6	703	58.014294656006	71
6	725	59.076976151944	72
6	725	59.076976151944	73
6	725	59.076976151944	74
6	747	60.993481727134	75
6	747	60.993481727134	76
6	747	60.993481727134	77
6	789	64.212843281002	78
6	789	64.212843281002	79
6	789	64.212843281002	80
6	850	68.626657209058	81
6	850	68.626657209058	82
6	850	68.626657209058	83
6	878	73.150939270037	84
6	878	73.150939270037	85
6	878	73.150939270037	86
6	900	74.251109815442	87
6	900	74.251109815442	88
6	900	74.251109815442	89
6	925	75.38093689438	90
6	925	75.38093689438	91
6	925	75.38093689438	92
6	947	76.605011364034	93
6	947	76.605011364034	94
6	947	76.605011364034	95
6	969	77.686985187013	96
6	969	77.686985187013	97
6	969	77.686985187013	98
6	1001	80.58513692114	99
6	1001	80.58513692114	100
6	1001	80.58513692114	101
6	1036	84.126634727463	102
6	1036	84.126634727463	103
6	1036	84.126634727463	104
6	1059	85.784194565407	105
6	1059	85.784194565407	106
6	1059	85.784194565407	107
6	1145	92.873213411293	108
6	1145	92.873213411293	109
6	1145	92.873213411293	110
6	1270	103.932599616558	111
6	1270	103.932599616558	112
6	1270	103.932599616558	113
6	1306	106.312211253331	114
6	1306	106.312211253331	115
6	1306	106.312211253331	116
6	1357	111.061121481029	117
6	1357	111.061121481029	118
6	1357	111.061121481029	119
6	1387	114.455523097869	120
6	1387	114.455523097869	121
6	1387	114.455523097869	122
6	1416	116.1108826666	123
6	1416	116.1108826666	124
6	1416	116.1108826666	125
6	1480	120.10336794724	126
6	1480	120.10336794724	127
6	1480	120.10336794724	128
6	1523	122.716778106023	129
6	1523	122.716778106023	130
6	1523	122.716778106023	131
6	1548	124.261087407033	132
6	1548	124.261087407033	133
6	1548	124.261087407033	134
6	1570	125.497820887849	135
6	1570	125.497820887849	136
6	1570	125.497820887849	137
6	1589	126.70074103468	138
6	1589	126.70074103468	139
6	1589	126.70074103468	140
6	1624	129.559231499438	141
6	1624	129.559231499438	142
6	1624	129.559231499438	143
6	1656	131.985164196005	144
6	1656	131.985164196005	145
6	1656	131.985164196005	146
6	1671	133.792543652684	147
6	1671	133.792543652684	148
6	1671	133.792543652684	149
6	1709	136.400372134109	150
6	1709	136.400372134109	151
6	1709	136.400372134109	152
6	1731	138.373812702849	153
6	1731	138.373812702849	154
6	1731	138.373812702849	155
6	1761	140.415182361136	156
6	1761	140.415182361136	157
6	1761	140.415182361136	158
6	1776	141.923521220167	159
6	1776	141.923521220167	160
6	1776	141.923521220167	161
6	1806	143.725290199189	162
6	1806	143.725290199189	163
6	1806	143.725290199189	164
6	1836	146.914086065168	165
6	1836	146.914086065168	166
6	1836	146.914086065168	167
6	1853	148.718708756553	168
6	1853	148.718708756553	169
6	1853	148.718708756553	170
6	1877	149.717401005134	171
6	1877	149.717401005134	172
6	1877	149.717401005134	173
6	1902	151.244065008333	174
6	1902	151.244065008333	175
6	1902	151.244065008333	176
6	1924	154.910258646741	177
6	1924	154.910258646741	178
6	1924	154.910258646741	179
6	1945	156.479312374861	180
6	1945	156.479312374861	181
6	1945	156.479312374861	182
6	2018	167.039611307231	183
6	2018	167.039611307231	184
6	2018	167.039611307231	185
6	2051	169.712419230815	186
6	2051	169.712419230815	187
6	2051	169.712419230815	188
6	2070	172.603854234815	189
6	2070	172.603854234815	190
6	2070	172.603854234815	191
6	2106	173.878338193616	192
6	2106	173.878338193616	193
6	2106	173.878338193616	194
6	2142	176.97252132834	195
6	2142	176.97252132834	196
6	2142	176.97252132834	197
6	2164	178.167396751457	198
6	2164	178.167396751457	199
6	2164	178.167396751457	200
6	2185	180.554422231048	201
6	2185	180.554422231048	202
6	2185	180.554422231048	203
6	2200	182.088095684836	204
6	2200	182.088095684836	205
6	2200	182.088095684836	206
6	2240	185.466873695815	207
6	2240	185.466873695815	208
6	2240	185.466873695815	209
6	2286	190.510436879436	210
6	2286	190.510436879436	211
6	2286	190.510436879436	212
6	2343	197.026767024927	213
6	2343	197.026767024927	214
6	2343	197.026767024927	215
6	2409	204.512312446136	216
6	2409	204.512312446136	217
6	2409	204.512312446136	218
6	2447	210.046131874469	219
6	2447	210.046131874469	220
6	2447	210.046131874469	221
6	2487	213.038129905227	222
6	2487	213.038129905227	223
6	2487	213.038129905227	224
6	2525	217.079306507234	225
6	2525	217.079306507234	226
6	2525	217.079306507234	227
6	2555	218.997925788071	228
6	2555	218.997925788071	229
6	2555	218.997925788071	230
6	2597	223.352720246248	231
6	2597	223.352720246248	232
6	2597	223.352720246248	233
6	2641	225.513764999492	234
6	2641	225.513764999492	235
6	2641	225.513764999492	236
6	2668	227.00650874145	237
6	2668	227.00650874145	238
6	2668	227.00650874145	239
6	2704	229.463035798321	240
6	2704	229.463035798321	241
6	2704	229.463035798321	242
6	2726	230.529170968313	243
6	2726	230.529170968313	244
6	2726	230.529170968313	245
6	2783	235.142424062825	246
6	2783	235.142424062825	247
6	2783	235.142424062825	248
6	2806	236.228253143751	249
6	2806	236.228253143751	250
6	2806	236.228253143751	251
6	2851	238.67332113025	252
6	2851	238.67332113025	253
6	2851	238.67332113025	254
7	42	2.157696785028	0
7	319	25.721924698166	1
7	657	52.902938875657	2
7	1190	95.312428103381	3
7	1420	116.1208826666	4
7	1486	120.11336794724	5
7	1712	136.410372134109	6
7	2411	204.514278893893	7
7	2561	219.007925788071	8
7	2650	225.531150650353	9
7	2671	227.01650874145	10

