version 2
run General-3-20230921-22:37:28-7196
attr configname General
attr datetime 20230921-22:37:28
attr experiment General
attr inifile omnetpp.ini
attr iterationvars ""
attr iterationvarsf ""
attr measurement ""
attr network Network3
attr processid 7196
attr repetition 3
attr replication #3
attr resultdir results
attr runnumber 3
attr seedset 3
param Network3.node[*].transmissionTime "uniform(1s, 2s)"
param Network3.node[*].delayTime "uniform(0.01s, 0.2s)"
param Network3.node[*].processingTime exponential(0.01s)
param Network3.node[0].lossProbability 0
param Network3.node[1].lossProbability 0.3
param Network3.node[2].lossProbability 0.3
param Network3.node[3].lossProbability "0.3 / 2"
param Network3.node[4].lossProbability "0.3 / 2"
param Network3.node[6].lossProbability "0.3 * 2"
param Network3.node[7].lossProbability "0.3 * 2"
param Network3.node[5].lossProbability "0.3 * 3"

vector 0 Network3.node[0] txVector ETV
vector 1 Network3.node[1] txVector ETV
vector 2 Network3.node[3] txVector ETV
vector 3 Network3.node[4] txVector ETV
vector 4 Network3.node[2] txVector ETV
vector 5 Network3.node[7] txVector ETV
vector 6 Network3.node[6] txVector ETV
vector 7 Network3.node[5] rxVector ETV
0	1	0.114651601831	0
0	1	0.114651601831	1
0	16	1.185376482154	2
0	16	1.185376482154	3
0	22	2.236843690113	4
0	22	2.236843690113	5
0	41	3.693676912761	6
0	41	3.693676912761	7
0	66	5.00003753982	8
0	66	5.00003753982	9
0	88	6.845788412331	10
0	88	6.845788412331	11
0	109	8.303474810509	12
0	109	8.303474810509	13
0	134	9.749375251191	14
0	134	9.749375251191	15
0	156	10.992050672718	16
0	156	10.992050672718	17
0	174	12.143911665375	18
0	174	12.143911665375	19
0	199	13.407798335724	20
0	199	13.407798335724	21
0	202	15.235820452752	22
0	202	15.235820452752	23
0	212	16.961490077269	24
0	212	16.961490077269	25
0	230	18.051280944911	26
0	230	18.051280944911	27
0	240	19.943674137187	28
0	240	19.943674137187	29
0	262	21.153047486744	30
0	262	21.153047486744	31
0	284	23.112754677259	32
0	284	23.112754677259	33
0	302	24.853837078274	34
0	302	24.853837078274	35
0	324	26.273419839632	36
0	324	26.273419839632	37
0	345	27.972229841933	38
0	345	27.972229841933	39
0	367	29.203690872597	40
0	367	29.203690872597	41
0	389	30.923842106317	42
0	389	30.923842106317	43
0	395	32.186269454262	44
0	395	32.186269454262	45
0	413	33.547353229322	46
0	413	33.547353229322	47
0	435	35.164058516104	48
0	435	35.164058516104	49
0	438	36.176814007409	50
0	438	36.176814007409	51
0	452	37.207125365105	52
0	452	37.207125365105	53
0	474	38.598083382076	54
0	474	38.598083382076	55
0	485	39.873635843465	56
0	485	39.873635843465	57
0	507	41.199899848852	58
0	507	41.199899848852	59
0	532	42.817244475078	60
0	532	42.817244475078	61
0	546	44.325401906459	62
0	546	44.325401906459	63
0	571	45.382274478743	64
0	571	45.382274478743	65
0	593	46.800497286091	66
0	593	46.800497286091	67
0	611	48.591688034892	68
0	611	48.591688034892	69
0	633	49.913152737612	70
0	633	49.913152737612	71
0	636	51.321742581738	72
0	636	51.321742581738	73
0	661	52.83798706259	74
0	661	52.83798706259	75
0	683	53.847843886887	76
0	683	53.847843886887	77
0	708	55.380722722107	78
0	708	55.380722722107	79
0	730	56.924700677463	80
0	730	56.924700677463	81
0	741	58.544027947656	82
0	741	58.544027947656	83
0	760	59.846887501723	84
0	760	59.846887501723	85
0	771	60.999350762528	86
0	771	60.999350762528	87
0	785	62.376700236297	88
0	785	62.376700236297	89
0	795	64.088754668667	90
0	795	64.088754668667	91
0	798	65.559822470483	92
0	798	65.559822470483	93
0	823	67.054152042207	94
0	823	67.054152042207	95
0	845	68.58308811446	96
0	845	68.58308811446	97
0	867	69.680393091005	98
0	867	69.680393091005	99
0	892	71.639958390801	100
0	892	71.639958390801	101
0	913	72.654673175256	102
0	913	72.654673175256	103
0	935	74.28616313224	104
0	935	74.28616313224	105
0	956	76.272064897765	106
0	956	76.272064897765	107
0	977	77.866747642236	108
0	977	77.866747642236	109
0	999	79.341704487635	110
0	999	79.341704487635	111
0	1020	80.777142380431	112
0	1020	80.777142380431	113
0	1042	81.795119832802	114
0	1042	81.795119832802	115
0	1060	83.085762263342	116
0	1060	83.085762263342	117
0	1070	84.577426161218	118
0	1070	84.577426161218	119
0	1088	85.970967608803	120
0	1088	85.970967608803	121
0	1113	87.680307627256	122
0	1113	87.680307627256	123
0	1116	88.999139737171	124
0	1116	88.999139737171	125
0	1130	90.693664934319	126
0	1130	90.693664934319	127
0	1152	92.36962598336	128
0	1152	92.36962598336	129
0	1174	93.969638201008	130
0	1174	93.969638201008	131
0	1196	95.375740685333	132
0	1196	95.375740685333	133
0	1199	96.880383707881	134
0	1199	96.880383707881	135
0	1221	97.965387048498	136
0	1221	97.965387048498	137
0	1243	99.455461721467	138
0	1243	99.455461721467	139
0	1268	100.964575958969	140
0	1268	100.964575958969	141
0	1286	102.388414994413	142
0	1286	102.388414994413	143
0	1305	103.717544650724	144
0	1305	103.717544650724	145
0	1327	105.681462773653	146
0	1327	105.681462773653	147
0	1341	106.793207639894	148
0	1341	106.793207639894	149
0	1363	108.616246827944	150
0	1363	108.616246827944	151
0	1388	109.818585831272	152
0	1388	109.818585831272	153
0	1409	111.379874975719	154
0	1409	111.379874975719	155
0	1412	112.963051330597	156
0	1412	112.963051330597	157
0	1433	114.787947262238	158
0	1433	114.787947262238	159
0	1447	116.435626146683	160
0	1447	116.435626146683	161
0	1469	118.402277403112	162
0	1469	118.402277403112	163
0	1484	119.946308618245	164
0	1484	119.946308618245	165
0	1490	121.462707763139	166
0	1490	121.462707763139	167
0	1515	123.173576446084	168
0	1515	123.173576446084	169
0	1537	124.520178569315	170
0	1537	124.520178569315	171
0	1559	125.66193406407	172
0	1559	125.66193406407	173
0	1577	127.407933925113	174
0	1577	127.407933925113	175
0	1583	129.213333738337	176
0	1583	129.213333738337	177
0	1586	130.827298794941	178
0	1586	130.827298794941	179
0	1596	132.150865083163	180
0	1596	132.150865083163	181
0	1615	133.87756560773	182
0	1615	133.87756560773	183
0	1626	135.235583852347	184
0	1626	135.235583852347	185
0	1651	136.484389768284	186
0	1651	136.484389768284	187
0	1673	137.744140925653	188
0	1673	137.744140925653	189
0	1695	139.605128449224	190
0	1695	139.605128449224	191
0	1720	140.796114840847	192
0	1720	140.796114840847	193
0	1742	141.805889698048	194
0	1742	141.805889698048	195
0	1760	143.262536370265	196
0	1760	143.262536370265	197
0	1785	145.251584804686	198
0	1785	145.251584804686	199
0	1807	146.566520796925	200
0	1807	146.566520796925	201
0	1821	147.619534570094	202
0	1821	147.619534570094	203
0	1842	149.449575071525	204
0	1842	149.449575071525	205
0	1864	150.543153976392	206
0	1864	150.543153976392	207
0	1889	152.207724172924	208
0	1889	152.207724172924	209
0	1892	153.208119637169	210
0	1892	153.208119637169	211
0	1917	155.045935212703	212
0	1917	155.045935212703	213
0	1942	156.974419506801	214
0	1942	156.974419506801	215
0	1960	158.082332185305	216
0	1960	158.082332185305	217
0	1963	159.989974849227	218
0	1963	159.989974849227	219
0	1984	161.204414772869	220
0	1984	161.204414772869	221
0	1987	163.17643709115	222
0	1987	163.17643709115	223
0	1990	164.974149630938	224
0	1990	164.974149630938	225
0	1997	166.214669894727	226
0	1997	166.214669894727	227
0	2000	168.063336619476	228
0	2000	168.063336619476	229
0	2021	169.344522243433	230
0	2021	169.344522243433	231
0	2039	170.783625700113	232
0	2039	170.783625700113	233
0	2061	172.604160131721	234
0	2061	172.604160131721	235
0	2083	174.409513089175	236
0	2083	174.409513089175	237
0	2105	175.464118791346	238
0	2105	175.464118791346	239
0	2119	177.124506652656	240
0	2119	177.124506652656	241
0	2122	178.696876176468	242
0	2122	178.696876176468	243
0	2140	180.594538511543	244
0	2140	180.594538511543	245
0	2165	181.971004752975	246
0	2165	181.971004752975	247
0	2187	183.047744612044	248
0	2187	183.047744612044	249
0	2190	184.787317697259	250
0	2190	184.787317697259	251
0	2215	186.48847146502	252
0	2215	186.48847146502	253
0	2240	187.788862121126	254
0	2240	187.788862121126	255
0	2262	188.970593308864	256
0	2262	188.970593308864	257
0	2284	190.447870911632	258
0	2284	190.447870911632	259
0	2305	192.070823371478	260
0	2305	192.070823371478	261
0	2319	193.405238234506	262
0	2319	193.405238234506	263
0	2333	194.769175826873	264
0	2333	194.769175826873	265
0	2340	196.666215275948	266
0	2340	196.666215275948	267
0	2365	198.221780329778	268
0	2365	198.221780329778	269
0	2387	199.324543410747	270
0	2387	199.324543410747	271
0	2409	200.794323222779	272
0	2409	200.794323222779	273
0	2431	201.804026570704	274
0	2431	201.804026570704	275
0	2453	203.172950796385	276
0	2453	203.172950796385	277
0	2475	204.859152603031	278
0	2475	204.859152603031	279
0	2478	206.421916171278	280
0	2478	206.421916171278	281
0	2499	208.356443305568	282
0	2499	208.356443305568	283
0	2517	209.6859728839	284
0	2517	209.6859728839	285
0	2536	211.460308711113	286
0	2536	211.460308711113	287
0	2546	213.389562976615	288
0	2546	213.389562976615	289
0	2564	214.996456546079	290
0	2564	214.996456546079	291
0	2575	216.86779085833	292
0	2575	216.86779085833	293
0	2597	217.916860825684	294
0	2597	217.916860825684	295
0	2608	219.376259428984	296
0	2608	219.376259428984	297
0	2629	220.414944822038	298
0	2629	220.414944822038	299
0	2632	221.973759671044	300
0	2632	221.973759671044	301
0	2653	223.461909786169	302
0	2653	223.461909786169	303
0	2674	225.367523408564	304
0	2674	225.367523408564	305
0	2696	226.569143853918	306
0	2696	226.569143853918	307
0	2699	228.241092681721	308
0	2699	228.241092681721	309
0	2724	229.45576710517	310
0	2724	229.45576710517	311
0	2749	231.372045863023	312
0	2749	231.372045863023	313
0	2771	232.963711252505	314
0	2771	232.963711252505	315
0	2796	234.360894148074	316
0	2796	234.360894148074	317
0	2814	236.256830111913	318
0	2814	236.256830111913	319
0	2817	237.474158112727	320
0	2817	237.474158112727	321
0	2839	238.617373205557	322
0	2839	238.617373205557	323
0	2842	239.989783894106	324
0	2842	239.989783894106	325
1	4	0.14297423212	0
1	4	0.14297423212	1
1	4	0.14297423212	2
1	25	2.257317485545	3
1	25	2.257317485545	4
1	25	2.257317485545	5
1	45	3.712510792206	6
1	45	3.712510792206	7
1	45	3.712510792206	8
1	70	5.014785595949	9
1	70	5.014785595949	10
1	70	5.014785595949	11
1	94	6.875487750352	12
1	94	6.875487750352	13
1	94	6.875487750352	14
1	112	8.317974318232	15
1	112	8.317974318232	16
1	112	8.317974318232	17
1	144	9.794989831368	18
1	144	9.794989831368	19
1	144	9.794989831368	20
1	159	11.00310543732	21
1	159	11.00310543732	22
1	159	11.00310543732	23
1	178	12.180047116737	24
1	178	12.180047116737	25
1	178	12.180047116737	26
1	215	16.978201454022	27
1	215	16.978201454022	28
1	215	16.978201454022	29
1	250	19.98630665017	30
1	250	19.98630665017	31
1	250	19.98630665017	32
1	272	21.205318461627	33
1	272	21.205318461627	34
1	272	21.205318461627	35
1	287	23.124474829687	36
1	287	23.124474829687	37
1	287	23.124474829687	38
1	308	24.884810041023	39
1	308	24.884810041023	40
1	308	24.884810041023	41
1	334	26.354433831687	42
1	334	26.354433831687	43
1	334	26.354433831687	44
1	348	27.988092298682	45
1	348	27.988092298682	46
1	348	27.988092298682	47
1	371	29.218968748184	48
1	371	29.218968748184	49
1	371	29.218968748184	50
1	402	32.217816681571	51
1	402	32.217816681571	52
1	402	32.217816681571	53
1	424	33.596022413611	54
1	424	33.596022413611	55
1	424	33.596022413611	56
1	441	36.193004579493	57
1	441	36.193004579493	58
1	441	36.193004579493	59
1	455	37.217599386543	60
1	455	37.217599386543	61
1	455	37.217599386543	62
1	477	38.609653312079	63
1	477	38.609653312079	64
1	477	38.609653312079	65
1	488	39.892404863328	66
1	488	39.892404863328	67
1	488	39.892404863328	68
1	517	41.2619663994	69
1	517	41.2619663994	70
1	517	41.2619663994	71
1	535	42.847761925265	72
1	535	42.847761925265	73
1	535	42.847761925265	74
1	550	44.347950591656	75
1	550	44.347950591656	76
1	550	44.347950591656	77
1	575	45.42914073605	78
1	575	45.42914073605	79
1	575	45.42914073605	80
1	596	46.810942094699	81
1	596	46.810942094699	82
1	596	46.810942094699	83
1	614	48.607059717376	84
1	614	48.607059717376	85
1	614	48.607059717376	86
1	639	51.340187126493	87
1	639	51.340187126493	88
1	639	51.340187126493	89
1	664	52.848854327393	90
1	664	52.848854327393	91
1	664	52.848854327393	92
1	686	53.865578901633	93
1	686	53.865578901633	94
1	686	53.865578901633	95
1	718	55.416296558534	96
1	718	55.416296558534	97
1	718	55.416296558534	98
1	733	56.936971034356	99
1	733	56.936971034356	100
1	733	56.936971034356	101
1	744	58.554406388589	102
1	744	58.554406388589	103
1	744	58.554406388589	104
1	763	59.880454208861	105
1	763	59.880454208861	106
1	763	59.880454208861	107
1	774	61.01897652744	108
1	774	61.01897652744	109
1	774	61.01897652744	110
1	801	65.577330343512	111
1	801	65.577330343512	112
1	801	65.577330343512	113
1	827	67.065582004548	114
1	827	67.065582004548	115
1	827	67.065582004548	116
1	855	68.637015223951	117
1	855	68.637015223951	118
1	855	68.637015223951	119
1	871	69.698521413185	120
1	871	69.698521413185	121
1	871	69.698521413185	122
1	895	71.666334004539	123
1	895	71.666334004539	124
1	895	71.666334004539	125
1	917	72.676118434453	126
1	917	72.676118434453	127
1	917	72.676118434453	128
1	938	74.296752586714	129
1	938	74.296752586714	130
1	938	74.296752586714	131
1	959	76.283439248663	132
1	959	76.283439248663	133
1	959	76.283439248663	134
1	980	77.896922322714	135
1	980	77.896922322714	136
1	980	77.896922322714	137
1	1009	79.416262571269	138
1	1009	79.416262571269	139
1	1009	79.416262571269	140
1	1023	80.798481850256	141
1	1023	80.798481850256	142
1	1023	80.798481850256	143
1	1046	81.819005739333	144
1	1046	81.819005739333	145
1	1046	81.819005739333	146
1	1073	84.61193968044	147
1	1073	84.61193968044	148
1	1073	84.61193968044	149
1	1092	85.992303530458	150
1	1092	85.992303530458	151
1	1092	85.992303530458	152
1	1120	89.020017254391	153
1	1120	89.020017254391	154
1	1120	89.020017254391	155
1	1133	90.713694826246	156
1	1133	90.713694826246	157
1	1133	90.713694826246	158
1	1156	92.400554047798	159
1	1156	92.400554047798	160
1	1156	92.400554047798	161
1	1178	93.991247332418	162
1	1178	93.991247332418	163
1	1178	93.991247332418	164
1	1217	96.982101614706	165
1	1217	96.982101614706	166
1	1217	96.982101614706	167
1	1232	98.031684073194	168
1	1232	98.031684073194	169
1	1232	98.031684073194	170
1	1246	99.467027721261	171
1	1246	99.467027721261	172
1	1246	99.467027721261	173
1	1272	100.985643779789	174
1	1272	100.985643779789	175
1	1272	100.985643779789	176
1	1289	102.399756502075	177
1	1289	102.399756502075	178
1	1289	102.399756502075	179
1	1308	103.741496615378	180
1	1308	103.741496615378	181
1	1308	103.741496615378	182
1	1331	105.703761198279	183
1	1331	105.703761198279	184
1	1331	105.703761198279	185
1	1344	106.807538624557	186
1	1344	106.807538624557	187
1	1344	106.807538624557	188
1	1366	108.659643416284	189
1	1366	108.659643416284	190
1	1366	108.659643416284	191
1	1398	109.868110904017	192
1	1398	109.868110904017	193
1	1398	109.868110904017	194
1	1415	112.973238462505	195
1	1415	112.973238462505	196
1	1415	112.973238462505	197
1	1437	114.811313211407	198
1	1437	114.811313211407	199
1	1437	114.811313211407	200
1	1458	116.498942508535	201
1	1458	116.498942508535	202
1	1458	116.498942508535	203
1	1472	118.447976363605	204
1	1472	118.447976363605	205
1	1472	118.447976363605	206
1	1493	121.476329401518	207
1	1493	121.476329401518	208
1	1493	121.476329401518	209
1	1522	123.235330627814	210
1	1522	123.235330627814	211
1	1522	123.235330627814	212
1	1540	124.537055447655	213
1	1540	124.537055447655	214
1	1540	124.537055447655	215
1	1562	125.689451296947	216
1	1562	125.689451296947	217
1	1562	125.689451296947	218
1	1599	132.196487776112	219
1	1599	132.196487776112	220
1	1599	132.196487776112	221
1	1618	133.889188946287	222
1	1618	133.889188946287	223
1	1618	133.889188946287	224
1	1629	135.280522366458	225
1	1629	135.280522366458	226
1	1629	135.280522366458	227
1	1654	136.51610623386	228
1	1654	136.51610623386	229
1	1654	136.51610623386	230
1	1679	137.810912549216	231
1	1679	137.810912549216	232
1	1679	137.810912549216	233
1	1699	139.633446561871	234
1	1699	139.633446561871	235
1	1699	139.633446561871	236
1	1723	140.806675961314	237
1	1723	140.806675961314	238
1	1723	140.806675961314	239
1	1746	141.825674321258	240
1	1746	141.825674321258	241
1	1746	141.825674321258	242
1	1763	143.320140466955	243
1	1763	143.320140466955	244
1	1763	143.320140466955	245
1	1792	145.278437828171	246
1	1792	145.278437828171	247
1	1792	145.278437828171	248
1	1813	146.596046117014	249
1	1813	146.596046117014	250
1	1813	146.596046117014	251
1	1824	147.642926324859	252
1	1824	147.642926324859	253
1	1824	147.642926324859	254
1	1852	149.489361076432	255
1	1852	149.489361076432	256
1	1852	149.489361076432	257
1	1874	150.587050961399	258
1	1874	150.587050961399	259
1	1874	150.587050961399	260
1	1896	153.237012766851	261
1	1896	153.237012766851	262
1	1896	153.237012766851	263
1	1921	155.05979315704	264
1	1921	155.05979315704	265
1	1921	155.05979315704	266
1	1946	156.994187472678	267
1	1946	156.994187472678	268
1	1946	156.994187472678	269
1	1967	160.007695631761	270
1	1967	160.007695631761	271
1	1967	160.007695631761	272
1	1993	164.992826586481	273
1	1993	164.992826586481	274
1	1993	164.992826586481	275
1	2003	168.077422656667	276
1	2003	168.077422656667	277
1	2003	168.077422656667	278
1	2025	169.361471792362	279
1	2025	169.361471792362	280
1	2025	169.361471792362	281
1	2043	170.806990802966	282
1	2043	170.806990802966	283
1	2043	170.806990802966	284
1	2065	172.632613403889	285
1	2065	172.632613403889	286
1	2065	172.632613403889	287
1	2089	174.448569451342	288
1	2089	174.448569451342	289
1	2089	174.448569451342	290
1	2109	175.490740273734	291
1	2109	175.490740273734	292
1	2109	175.490740273734	293
1	2126	178.709994912208	294
1	2126	178.709994912208	295
1	2126	178.709994912208	296
1	2143	180.610354132616	297
1	2143	180.610354132616	298
1	2143	180.610354132616	299
1	2171	181.999494592819	300
1	2171	181.999494592819	301
1	2171	181.999494592819	302
1	2194	184.810756059901	303
1	2194	184.810756059901	304
1	2194	184.810756059901	305
1	2221	186.527019929437	306
1	2221	186.527019929437	307
1	2221	186.527019929437	308
1	2244	187.812857631642	309
1	2244	187.812857631642	310
1	2244	187.812857631642	311
1	2269	189.005201955651	312
1	2269	189.005201955651	313
1	2269	189.005201955651	314
1	2288	190.466068454828	315
1	2288	190.466068454828	316
1	2288	190.466068454828	317
1	2308	192.095194030682	318
1	2308	192.095194030682	319
1	2308	192.095194030682	320
1	2325	193.436491801415	321
1	2325	193.436491801415	322
1	2325	193.436491801415	323
1	2336	194.787330141557	324
1	2336	194.787330141557	325
1	2336	194.787330141557	326
1	2343	196.676997691808	327
1	2343	196.676997691808	328
1	2343	196.676997691808	329
1	2369	198.234970969784	330
1	2369	198.234970969784	331
1	2369	198.234970969784	332
1	2390	199.336718918915	333
1	2390	199.336718918915	334
1	2390	199.336718918915	335
1	2413	200.811830529127	336
1	2413	200.811830529127	337
1	2413	200.811830529127	338
1	2441	201.907508554956	339
1	2441	201.907508554956	340
1	2441	201.907508554956	341
1	2456	203.185281069158	342
1	2456	203.185281069158	343
1	2456	203.185281069158	344
1	2481	206.439263654394	345
1	2481	206.439263654394	346
1	2481	206.439263654394	347
1	2503	208.37540683082	348
1	2503	208.37540683082	349
1	2503	208.37540683082	350
1	2520	209.69651529846	351
1	2520	209.69651529846	352
1	2520	209.69651529846	353
1	2552	213.419902786625	354
1	2552	213.419902786625	355
1	2552	213.419902786625	356
1	2567	215.006514228343	357
1	2567	215.006514228343	358
1	2567	215.006514228343	359
1	2579	216.881869086394	360
1	2579	216.881869086394	361
1	2579	216.881869086394	362
1	2600	217.930903267757	363
1	2600	217.930903267757	364
1	2600	217.930903267757	365
1	2618	219.462415571952	366
1	2618	219.462415571952	367
1	2618	219.462415571952	368
1	2635	221.989933263248	369
1	2635	221.989933263248	370
1	2635	221.989933263248	371
1	2656	223.472418491724	372
1	2656	223.472418491724	373
1	2656	223.472418491724	374
1	2678	225.390017050382	375
1	2678	225.390017050382	376
1	2678	225.390017050382	377
1	2710	228.295874849952	378
1	2710	228.295874849952	379
1	2710	228.295874849952	380
1	2728	229.474182429489	381
1	2728	229.474182429489	382
1	2728	229.474182429489	383
1	2759	231.418689693752	384
1	2759	231.418689693752	385
1	2759	231.418689693752	386
1	2774	232.987389961147	387
1	2774	232.987389961147	388
1	2774	232.987389961147	389
1	2799	234.374876888875	390
1	2799	234.374876888875	391
1	2799	234.374876888875	392
1	2820	237.488920253503	393
1	2820	237.488920253503	394
1	2820	237.488920253503	395
2	8	0.158720088868	0
2	8	0.158720088868	1
2	8	0.158720088868	2
2	29	2.276254533084	3
2	29	2.276254533084	4
2	29	2.276254533084	5
2	52	3.726168864971	6
2	52	3.726168864971	7
2	52	3.726168864971	8
2	76	5.025019485654	9
2	76	5.025019485654	10
2	76	5.025019485654	11
2	98	6.886269529392	12
2	98	6.886269529392	13
2	98	6.886269529392	14
2	119	8.339659744758	15
2	119	8.339659744758	16
2	119	8.339659744758	17
2	152	9.80730872491	18
2	152	9.80730872491	19
2	152	9.80730872491	20
2	166	11.014004692222	21
2	166	11.014004692222	22
2	166	11.014004692222	23
2	184	12.194353795531	24
2	184	12.194353795531	25
2	184	12.194353795531	26
2	219	16.994839167553	27
2	219	16.994839167553	28
2	219	16.994839167553	29
2	254	20.004228168528	30
2	254	20.004228168528	31
2	254	20.004228168528	32
2	280	21.219473705842	33
2	280	21.219473705842	34
2	280	21.219473705842	35
2	291	23.147463236485	36
2	291	23.147463236485	37
2	291	23.147463236485	38
2	316	24.904575853607	39
2	316	24.904575853607	40
2	316	24.904575853607	41
2	338	26.382257533943	42
2	338	26.382257533943	43
2	338	26.382257533943	44
2	355	28.005743777337	45
2	355	28.005743777337	46
2	355	28.005743777337	47
2	377	29.232602671709	48
2	377	29.232602671709	49
2	377	29.232602671709	50
2	409	32.277326520642	51
2	409	32.277326520642	52
2	409	32.277326520642	53
2	431	33.61972148799	54
2	431	33.61972148799	55
2	431	33.61972148799	56
2	445	36.206211484081	57
2	445	36.206211484081	58
2	445	36.206211484081	59
2	460	37.236687654137	60
2	460	37.236687654137	61
2	460	37.236687654137	62
2	493	39.918549178623	63
2	493	39.918549178623	64
2	493	39.918549178623	65
2	525	41.294331554888	66
2	525	41.294331554888	67
2	525	41.294331554888	68
2	539	42.874704764278	69
2	539	42.874704764278	70
2	539	42.874704764278	71
2	556	44.363598451891	72
2	556	44.363598451891	73
2	556	44.363598451891	74
2	585	45.453500450637	75
2	585	45.453500450637	76
2	585	45.453500450637	77
2	601	46.821820364632	78
2	601	46.821820364632	79
2	601	46.821820364632	80
2	622	48.628802682827	81
2	622	48.628802682827	82
2	622	48.628802682827	83
2	647	51.372392993563	84
2	647	51.372392993563	85
2	647	51.372392993563	86
2	672	52.872356396445	87
2	672	52.872356396445	88
2	672	52.872356396445	89
2	693	53.881015712464	90
2	693	53.881015712464	91
2	693	53.881015712464	92
2	722	55.427160768871	93
2	722	55.427160768871	94
2	722	55.427160768871	95
2	748	58.569946407272	96
2	748	58.569946407272	97
2	748	58.569946407272	98
2	767	59.891541034826	99
2	767	59.891541034826	100
2	767	59.891541034826	101
2	806	65.589006609554	102
2	806	65.589006609554	103
2	806	65.589006609554	104
2	833	67.081659529446	105
2	833	67.081659529446	106
2	833	67.081659529446	107
2	859	68.650151799559	108
2	859	68.650151799559	109
2	859	68.650151799559	110
2	885	69.746416912477	111
2	885	69.746416912477	112
2	885	69.746416912477	113
2	900	71.678120344594	114
2	900	71.678120344594	115
2	900	71.678120344594	116
2	931	72.736999989769	117
2	931	72.736999989769	118
2	931	72.736999989769	119
2	943	74.309154469901	120
2	943	74.309154469901	121
2	943	74.309154469901	122
2	966	76.303790471504	123
2	966	76.303790471504	124
2	966	76.303790471504	125
2	985	77.912393352972	126
2	985	77.912393352972	127
2	985	77.912393352972	128
2	1013	79.444523060266	129
2	1013	79.444523060266	130
2	1013	79.444523060266	131
2	1030	80.821597080212	132
2	1030	80.821597080212	133
2	1030	80.821597080212	134
2	1053	81.835728643925	135
2	1053	81.835728643925	136
2	1053	81.835728643925	137
2	1078	84.627160613945	138
2	1078	84.627160613945	139
2	1078	84.627160613945	140
2	1098	86.007459659841	141
2	1098	86.007459659841	142
2	1098	86.007459659841	143
2	1137	90.726512239302	144
2	1137	90.726512239302	145
2	1137	90.726512239302	146
2	1162	92.434960783457	147
2	1162	92.434960783457	148
2	1162	92.434960783457	149
2	1184	94.006992643429	150
2	1184	94.006992643429	151
2	1184	94.006992643429	152
2	1213	96.965367940613	153
2	1213	96.965367940613	154
2	1213	96.965367940613	155
2	1239	98.066441727328	156
2	1239	98.066441727328	157
2	1239	98.066441727328	158
2	1254	99.484735065725	159
2	1254	99.484735065725	160
2	1254	99.484735065725	161
2	1282	101.007851826634	162
2	1282	101.007851826634	163
2	1282	101.007851826634	164
2	1301	102.455402637314	165
2	1301	102.455402637314	166
2	1301	102.455402637314	167
2	1315	103.759392270336	168
2	1315	103.759392270336	169
2	1315	103.759392270336	170
2	1349	106.818371705904	171
2	1349	106.818371705904	172
2	1349	106.818371705904	173
2	1381	108.721265362075	174
2	1381	108.721265362075	175
2	1381	108.721265362075	176
2	1402	109.878617152222	177
2	1402	109.878617152222	178
2	1402	109.878617152222	179
2	1420	112.990359399222	180
2	1420	112.990359399222	181
2	1420	112.990359399222	182
2	1465	116.531602959274	183
2	1465	116.531602959274	184
2	1465	116.531602959274	185
2	1476	118.464981167281	186
2	1476	118.464981167281	187
2	1476	118.464981167281	188
2	1498	121.496946908314	189
2	1498	121.496946908314	190
2	1498	121.496946908314	191
2	1533	123.264912998685	192
2	1533	123.264912998685	193
2	1533	123.264912998685	194
2	1544	124.552807420777	195
2	1544	124.552807420777	196
2	1544	124.552807420777	197
2	1567	125.709031471382	198
2	1567	125.709031471382	199
2	1567	125.709031471382	200
2	1607	132.241020040824	201
2	1607	132.241020040824	202
2	1607	132.241020040824	203
2	1622	133.903951162547	204
2	1622	133.903951162547	205
2	1622	133.903951162547	206
2	1633	135.292857035761	207
2	1633	135.292857035761	208
2	1633	135.292857035761	209
2	1658	136.532298536818	210
2	1658	136.532298536818	211
2	1658	136.532298536818	212
2	1683	137.828114946529	213
2	1683	137.828114946529	214
2	1683	137.828114946529	215
2	1709	139.659704123593	216
2	1709	139.659704123593	217
2	1709	139.659704123593	218
2	1728	140.819726010855	219
2	1728	140.819726010855	220
2	1728	140.819726010855	221
2	1753	141.837900663847	222
2	1753	141.837900663847	223
2	1753	141.837900663847	224
2	1768	143.335999646474	225
2	1768	143.335999646474	226
2	1768	143.335999646474	227
2	1799	145.289695982544	228
2	1799	145.289695982544	229
2	1799	145.289695982544	230
2	1829	147.654819228587	231
2	1829	147.654819228587	232
2	1829	147.654819228587	233
2	1860	149.505478707608	234
2	1860	149.505478707608	235
2	1860	149.505478707608	236
2	1882	150.611388870216	237
2	1882	150.611388870216	238
2	1882	150.611388870216	239
2	1906	153.260875984703	240
2	1906	153.260875984703	241
2	1906	153.260875984703	242
2	1927	155.082969299049	243
2	1927	155.082969299049	244
2	1927	155.082969299049	245
2	1952	157.015759477141	246
2	1952	157.015759477141	247
2	1952	157.015759477141	248
2	1977	160.029055126189	249
2	1977	160.029055126189	250
2	1977	160.029055126189	251
2	2008	168.09807735356	252
2	2008	168.09807735356	253
2	2008	168.09807735356	254
2	2032	169.374399459036	255
2	2032	169.374399459036	256
2	2032	169.374399459036	257
2	2053	170.848964419008	258
2	2053	170.848964419008	259
2	2053	170.848964419008	260
2	2071	172.643499197563	261
2	2071	172.643499197563	262
2	2071	172.643499197563	263
2	2097	174.50207330582	264
2	2097	174.50207330582	265
2	2097	174.50207330582	266
2	2115	175.507227541817	267
2	2115	175.507227541817	268
2	2115	175.507227541817	269
2	2133	178.72852381185	270
2	2133	178.72852381185	271
2	2133	178.72852381185	272
2	2148	180.622987343502	273
2	2148	180.622987343502	274
2	2148	180.622987343502	275
2	2175	182.012808165066	276
2	2175	182.012808165066	277
2	2175	182.012808165066	278
2	2201	184.822983918448	279
2	2201	184.822983918448	280
2	2201	184.822983918448	281
2	2226	186.538524823961	282
2	2226	186.538524823961	283
2	2226	186.538524823961	284
2	2250	187.835356683515	285
2	2250	187.835356683515	286
2	2250	187.835356683515	287
2	2276	189.022702320843	288
2	2276	189.022702320843	289
2	2276	189.022702320843	290
2	2298	190.489043765388	291
2	2298	190.489043765388	292
2	2298	190.489043765388	293
2	2350	196.695516381876	294
2	2350	196.695516381876	295
2	2350	196.695516381876	296
2	2380	198.26982169571	297
2	2380	198.26982169571	298
2	2380	198.26982169571	299
2	2394	199.389200322336	300
2	2394	199.389200322336	301
2	2394	199.389200322336	302
2	2419	200.829798252224	303
2	2419	200.829798252224	304
2	2419	200.829798252224	305
2	2445	201.918759459972	306
2	2445	201.918759459972	307
2	2445	201.918759459972	308
2	2462	203.20887198742	309
2	2462	203.20887198742	310
2	2462	203.20887198742	311
2	2488	206.456791392463	312
2	2488	206.456791392463	313
2	2488	206.456791392463	314
2	2524	209.709323759377	315
2	2524	209.709323759377	316
2	2524	209.709323759377	317
2	2560	213.440601363634	318
2	2560	213.440601363634	319
2	2560	213.440601363634	320
2	2585	216.896851096993	321
2	2585	216.896851096993	322
2	2585	216.896851096993	323
2	2604	217.941613847885	324
2	2604	217.941613847885	325
2	2604	217.941613847885	326
2	2622	219.473034626906	327
2	2622	219.473034626906	328
2	2622	219.473034626906	329
2	2643	222.015219299234	330
2	2643	222.015219299234	331
2	2643	222.015219299234	332
2	2660	223.483195064545	333
2	2660	223.483195064545	334
2	2660	223.483195064545	335
2	2688	225.410630778392	336
2	2688	225.410630778392	337
2	2688	225.410630778392	338
2	2714	228.30248524285	339
2	2714	228.30248524285	340
2	2714	228.30248524285	341
2	2739	229.508341912378	342
2	2739	229.508341912378	343
2	2739	229.508341912378	344
2	2767	231.449883204329	345
2	2767	231.449883204329	346
2	2767	231.449883204329	347
2	2778	233.00388876775	348
2	2778	233.00388876775	349
2	2778	233.00388876775	350
2	2804	234.387732381151	351
2	2804	234.387732381151	352
2	2804	234.387732381151	353
2	2824	237.499866679139	354
2	2824	237.499866679139	355
2	2824	237.499866679139	356
3	9	0.161397929952	0
3	9	0.161397929952	1
3	9	0.161397929952	2
3	30	2.278595473663	3
3	30	2.278595473663	4
3	30	2.278595473663	5
3	51	3.724758514664	6
3	51	3.724758514664	7
3	51	3.724758514664	8
3	80	5.036476174721	9
3	80	5.036476174721	10
3	80	5.036476174721	11
3	99	6.891285556491	12
3	99	6.891285556491	13
3	99	6.891285556491	14
3	120	8.339721465893	15
3	120	8.339721465893	16
3	120	8.339721465893	17
3	140	9.778582899112	18
3	140	9.778582899112	19
3	140	9.778582899112	20
3	167	11.014340869901	21
3	167	11.014340869901	22
3	167	11.014340869901	23
3	185	12.203482801103	24
3	185	12.203482801103	25
3	185	12.203482801103	26
3	208	15.306637859088	27
3	208	15.306637859088	28
3	208	15.306637859088	29
3	220	17.003695150843	30
3	220	17.003695150843	31
3	220	17.003695150843	32
3	236	18.077024422407	33
3	236	18.077024422407	34
3	236	18.077024422407	35
3	246	19.973093840896	36
3	246	19.973093840896	37
3	246	19.973093840896	38
3	268	21.192302746451	39
3	268	21.192302746451	40
3	268	21.192302746451	41
3	292	23.152889766402	42
3	292	23.152889766402	43
3	292	23.152889766402	44
3	309	24.887671535291	45
3	309	24.887671535291	46
3	309	24.887671535291	47
3	330	26.323862547141	48
3	330	26.323862547141	49
3	330	26.323862547141	50
3	359	28.016226960362	51
3	359	28.016226960362	52
3	359	28.016226960362	53
3	378	29.242545322497	54
3	378	29.242545322497	55
3	378	29.242545322497	56
3	401	32.210719926376	57
3	401	32.210719926376	58
3	401	32.210719926376	59
3	419	33.580468138659	60
3	419	33.580468138659	61
3	419	33.580468138659	62
3	459	37.232251224134	63
3	459	37.232251224134	64
3	459	37.232251224134	65
3	481	38.62802502467	66
3	481	38.62802502467	67
3	481	38.62802502467	68
3	492	39.909374876177	69
3	492	39.909374876177	70
3	492	39.909374876177	71
3	513	41.241595004162	72
3	513	41.241595004162	73
3	513	41.241595004162	74
3	557	44.366314480831	75
3	557	44.366314480831	76
3	557	44.366314480831	77
3	581	45.440361646682	78
3	581	45.440361646682	79
3	581	45.440361646682	80
3	607	46.861505355253	81
3	607	46.861505355253	82
3	607	46.861505355253	83
3	621	48.624716370951	84
3	621	48.624716370951	85
3	621	48.624716370951	86
3	643	51.356856292465	87
3	643	51.356856292465	88
3	643	51.356856292465	89
3	669	52.862461441536	90
3	669	52.862461441536	91
3	669	52.862461441536	92
3	694	53.883640556278	93
3	694	53.883640556278	94
3	694	53.883640556278	95
3	714	55.401312989804	96
3	714	55.401312989804	97
3	714	55.401312989804	98
3	737	56.951201524361	99
3	737	56.951201524361	100
3	737	56.951201524361	101
3	749	58.574502993805	102
3	749	58.574502993805	103
3	749	58.574502993805	104
3	779	61.034293322614	105
3	779	61.034293322614	106
3	779	61.034293322614	107
3	791	62.427901832659	108
3	791	62.427901832659	109
3	791	62.427901832659	110
3	807	65.590283525882	111
3	807	65.590283525882	112
3	807	65.590283525882	113
3	834	67.082576472553	114
3	834	67.082576472553	115
3	834	67.082576472553	116
3	851	68.625332221522	117
3	851	68.625332221522	118
3	851	68.625332221522	119
3	877	69.713489025749	120
3	877	69.713489025749	121
3	877	69.713489025749	122
3	901	71.682930787112	123
3	901	71.682930787112	124
3	901	71.682930787112	125
3	923	72.705739117825	126
3	923	72.705739117825	127
3	923	72.705739117825	128
3	946	74.316649656651	129
3	946	74.316649656651	130
3	946	74.316649656651	131
3	970	76.314838087514	132
3	970	76.314838087514	133
3	970	76.314838087514	134
3	986	77.91360424746	135
3	986	77.91360424746	136
3	986	77.91360424746	137
3	1005	79.39133207321	138
3	1005	79.39133207321	139
3	1005	79.39133207321	140
3	1031	80.828226612217	141
3	1031	80.828226612217	142
3	1031	80.828226612217	143
3	1052	81.832127803672	144
3	1052	81.832127803672	145
3	1052	81.832127803672	146
3	1066	83.146557136181	147
3	1066	83.146557136181	148
3	1066	83.146557136181	149
3	1084	84.644934635944	150
3	1084	84.644934635944	151
3	1084	84.644934635944	152
3	1103	86.027354611898	153
3	1103	86.027354611898	154
3	1103	86.027354611898	155
3	1123	89.025555579694	156
3	1123	89.025555579694	157
3	1123	89.025555579694	158
3	1141	90.744485545666	159
3	1141	90.744485545666	160
3	1141	90.744485545666	161
3	1163	92.439325733376	162
3	1163	92.439325733376	163
3	1163	92.439325733376	164
3	1185	94.010796922568	165
3	1185	94.010796922568	166
3	1185	94.010796922568	167
3	1205	96.923460696764	168
3	1205	96.923460696764	169
3	1205	96.923460696764	170
3	1227	98.010406335038	171
3	1227	98.010406335038	172
3	1227	98.010406335038	173
3	1253	99.482469052025	174
3	1253	99.482469052025	175
3	1253	99.482469052025	176
3	1275	100.992979112555	177
3	1275	100.992979112555	178
3	1275	100.992979112555	179
3	1293	102.424074623897	180
3	1293	102.424074623897	181
3	1293	102.424074623897	182
3	1320	103.779047568292	183
3	1320	103.779047568292	184
3	1320	103.779047568292	185
3	1337	105.714209856702	186
3	1337	105.714209856702	187
3	1337	105.714209856702	188
3	1352	106.825796164243	189
3	1352	106.825796164243	190
3	1352	106.825796164243	191
3	1370	108.669736557753	192
3	1370	108.669736557753	193
3	1370	108.669736557753	194
3	1394	109.854419991381	195
3	1394	109.854419991381	196
3	1394	109.854419991381	197
3	1419	112.983377789469	198
3	1419	112.983377789469	199
3	1419	112.983377789469	200
3	1440	114.816048960436	201
3	1440	114.816048960436	202
3	1440	114.816048960436	203
3	1453	116.473541090263	204
3	1453	116.473541090263	205
3	1453	116.473541090263	206
3	1477	118.466078716985	207
3	1477	118.466078716985	208
3	1477	118.466078716985	209
3	1497	121.489206246814	210
3	1497	121.489206246814	211
3	1497	121.489206246814	212
3	1521	123.22750491567	213
3	1521	123.22750491567	214
3	1521	123.22750491567	215
3	1545	124.559639723606	216
3	1545	124.559639723606	217
3	1545	124.559639723606	218
3	1566	125.701472379529	219
3	1566	125.701472379529	220
3	1566	125.701472379529	221
3	1592	130.867455041555	222
3	1592	130.867455041555	223
3	1592	130.867455041555	224
3	1603	132.208644795405	225
3	1603	132.208644795405	226
3	1603	132.208644795405	227
3	1634	135.301305212302	228
3	1634	135.301305212302	229
3	1634	135.301305212302	230
3	1659	136.535125076608	231
3	1659	136.535125076608	232
3	1659	136.535125076608	233
3	1684	137.835279258024	234
3	1684	137.835279258024	235
3	1684	137.835279258024	236
3	1702	139.639957251027	237
3	1702	139.639957251027	238
3	1702	139.639957251027	239
3	1729	140.820644263436	240
3	1729	140.820644263436	241
3	1729	140.820644263436	242
3	1749	141.833018237683	243
3	1749	141.833018237683	244
3	1749	141.833018237683	245
3	1767	143.332599617995	246
3	1767	143.332599617995	247
3	1767	143.332599617995	248
3	1791	145.277403070268	249
3	1791	145.277403070268	250
3	1791	145.277403070268	251
3	1814	146.597494465305	252
3	1814	146.597494465305	253
3	1814	146.597494465305	254
3	1830	147.656890923248	255
3	1830	147.656890923248	256
3	1830	147.656890923248	257
3	1848	149.476347101136	258
3	1848	149.476347101136	259
3	1848	149.476347101136	260
3	1870	150.575230016498	261
3	1870	150.575230016498	262
3	1870	150.575230016498	263
3	1899	153.246121003152	264
3	1899	153.246121003152	265
3	1899	153.246121003152	266
3	1931	155.093718223607	267
3	1931	155.093718223607	268
3	1931	155.093718223607	269
3	1956	157.028721045096	270
3	1956	157.028721045096	271
3	1956	157.028721045096	272
3	1970	160.013046288809	273
3	1970	160.013046288809	274
3	1970	160.013046288809	275
3	2007	168.09575849466	276
3	2007	168.09575849466	277
3	2007	168.09575849466	278
3	2028	169.370141113248	279
3	2028	169.370141113248	280
3	2028	169.370141113248	281
3	2046	170.814846989217	282
3	2046	170.814846989217	283
3	2046	170.814846989217	284
3	2075	172.65756112959	285
3	2075	172.65756112959	286
3	2075	172.65756112959	287
3	2090	174.451579585369	288
3	2090	174.451579585369	289
3	2090	174.451579585369	290
3	2132	178.720472397933	291
3	2132	178.720472397933	292
3	2132	178.720472397933	293
3	2155	180.637044872273	294
3	2155	180.637044872273	295
3	2155	180.637044872273	296
3	2176	182.013631497761	297
3	2176	182.013631497761	298
3	2176	182.013631497761	299
3	2197	184.818584842394	300
3	2197	184.818584842394	301
3	2197	184.818584842394	302
3	2225	186.537551837048	303
3	2225	186.537551837048	304
3	2225	186.537551837048	305
3	2255	187.85360015266	306
3	2255	187.85360015266	307
3	2255	187.85360015266	308
3	2268	189.003681129039	309
3	2268	189.003681129039	310
3	2268	189.003681129039	311
3	2291	190.470135795082	312
3	2291	190.470135795082	313
3	2291	190.470135795082	314
3	2313	192.106015882734	315
3	2313	192.106015882734	316
3	2313	192.106015882734	317
3	2326	193.43904344464	318
3	2326	193.43904344464	319
3	2326	193.43904344464	320
3	2351	196.699982296322	321
3	2351	196.699982296322	322
3	2351	196.699982296322	323
3	2375	198.247774786048	324
3	2375	198.247774786048	325
3	2375	198.247774786048	326
3	2395	199.396720042367	327
3	2395	199.396720042367	328
3	2395	199.396720042367	329
3	2420	200.830220621584	330
3	2420	200.830220621584	331
3	2420	200.830220621584	332
3	2437	201.89007834707	333
3	2437	201.89007834707	334
3	2437	201.89007834707	335
3	2460	203.200755967916	336
3	2460	203.200755967916	337
3	2460	203.200755967916	338
3	2489	206.465233325255	339
3	2489	206.465233325255	340
3	2489	206.465233325255	341
3	2509	208.406230622271	342
3	2509	208.406230622271	343
3	2509	208.406230622271	344
3	2528	209.724519234479	345
3	2528	209.724519234479	346
3	2528	209.724519234479	347
3	2542	211.503933537758	348
3	2542	211.503933537758	349
3	2542	211.503933537758	350
3	2553	213.421096858557	351
3	2553	213.421096858557	352
3	2553	213.421096858557	353
3	2571	215.018670456496	354
3	2571	215.018670456496	355
3	2571	215.018670456496	356
3	2586	216.903503974578	357
3	2586	216.903503974578	358
3	2586	216.903503974578	359
3	2614	219.428764111344	360
3	2614	219.428764111344	361
3	2614	219.428764111344	362
3	2642	222.013593548033	363
3	2642	222.013593548033	364
3	2642	222.013593548033	365
3	2670	223.563507470984	366
3	2670	223.563507470984	367
3	2670	223.563507470984	368
3	2681	225.393869935975	369
3	2681	225.393869935975	370
3	2681	225.393869935975	371
3	2705	228.272737120091	372
3	2705	228.272737120091	373
3	2705	228.272737120091	374
3	2734	229.487719882254	375
3	2734	229.487719882254	376
3	2734	229.487719882254	377
3	2755	231.4048278743	378
3	2755	231.4048278743	379
3	2755	231.4048278743	380
3	2779	233.009022146027	381
3	2779	233.009022146027	382
3	2779	233.009022146027	383
3	2803	234.386316537207	384
3	2803	234.386316537207	385
3	2803	234.386316537207	386
3	2831	237.512167022712	387
3	2831	237.512167022712	388
3	2831	237.512167022712	389
4	19	1.207245137116	0
4	19	1.207245137116	1
4	44	3.706891647098	2
4	44	3.706891647098	3
4	69	5.011005039103	4
4	69	5.011005039103	5
4	91	6.864613415986	6
4	91	6.864613415986	7
4	113	8.320733469369	8
4	113	8.320733469369	9
4	137	9.761996488813	10
4	137	9.761996488813	11
4	160	11.003435180168	12
4	160	11.003435180168	13
4	177	12.172187173019	14
4	177	12.172187173019	15
4	205	15.27760168715	16
4	205	15.27760168715	17
4	227	17.01564573473	18
4	227	17.01564573473	19
4	233	18.061677901387	20
4	233	18.061677901387	21
4	243	19.956574205053	22
4	243	19.956574205053	23
4	265	21.18043904656	24
4	265	21.18043904656	25
4	299	23.16439180102	26
4	299	23.16439180102	27
4	305	24.865506367094	28
4	305	24.865506367094	29
4	327	26.295923656733	30
4	327	26.295923656733	31
4	349	27.992532137373	32
4	349	27.992532137373	33
4	370	29.215189530649	34
4	370	29.215189530649	35
4	392	30.940360535903	36
4	392	30.940360535903	37
4	398	32.199924121856	38
4	398	32.199924121856	39
4	416	33.56082549105	40
4	416	33.56082549105	41
4	510	41.213967252636	42
4	510	41.213967252636	43
4	549	44.3407534117	44
4	549	44.3407534117	45
4	574	45.428425352906	46
4	574	45.428425352906	47
4	597	46.813679158689	48
4	597	46.813679158689	49
4	615	48.610153320611	50
4	615	48.610153320611	51
4	648	51.376678151357	52
4	648	51.376678151357	53
4	665	52.855022765091	54
4	665	52.855022765091	55
4	687	53.870503346057	56
4	687	53.870503346057	57
4	711	55.391245822543	58
4	711	55.391245822543	59
4	778	61.031316272996	60
4	778	61.031316272996	61
4	788	62.391220048285	62
4	788	62.391220048285	63
4	802	65.581011425901	64
4	802	65.581011425901	65
4	826	67.065090671561	66
4	826	67.065090671561	67
4	848	68.59337513509	68
4	848	68.59337513509	69
4	870	69.694846738213	70
4	870	69.694846738213	71
4	899	71.676820495383	72
4	899	71.676820495383	73
4	916	72.67507226482	74
4	916	72.67507226482	75
4	939	74.305373169257	76
4	939	74.305373169257	77
4	960	76.289208051002	78
4	960	76.289208051002	79
4	981	77.905194230693	80
4	981	77.905194230693	81
4	1002	79.359304230393	82
4	1002	79.359304230393	83
4	1027	80.810172834914	84
4	1027	80.810172834914	85
4	1045	81.816951228338	86
4	1045	81.816951228338	87
4	1063	83.13305324624	88
4	1063	83.13305324624	89
4	1077	84.62403727373	90
4	1077	84.62403727373	91
4	1091	85.987659730109	92
4	1091	85.987659730109	93
4	1119	89.015337185009	94
4	1119	89.015337185009	95
4	1155	92.395881885811	96
4	1155	92.395881885811	97
4	1177	93.985516483841	98
4	1177	93.985516483841	99
4	1202	96.893099506915	100
4	1202	96.893099506915	101
4	1224	97.988461851449	102
4	1224	97.988461851449	103
4	1247	99.468073893854	104
4	1247	99.468073893854	105
4	1271	100.975825523631	106
4	1271	100.975825523631	107
4	1309	103.742814179519	108
4	1309	103.742814179519	109
4	1330	105.693946620414	110
4	1330	105.693946620414	111
4	1345	106.812940153102	112
4	1345	106.812940153102	113
4	1374	108.684501058813	114
4	1374	108.684501058813	115
4	1391	109.832699505971	116
4	1391	109.832699505971	117
4	1424	113.000117032115	118
4	1424	113.000117032115	119
4	1436	114.801499808838	120
4	1436	114.801499808838	121
4	1450	116.460366564546	122
4	1450	116.460366564546	123
4	1487	119.956370446784	124
4	1487	119.956370446784	125
4	1502	121.500803654562	126
4	1502	121.500803654562	127
4	1518	123.191764479255	128
4	1518	123.191764479255	129
4	1571	125.712003882548	130
4	1571	125.712003882548	131
4	1580	127.422020131682	132
4	1580	127.422020131682	133
4	1589	130.853917632924	134
4	1589	130.853917632924	135
4	1638	135.31092236231	136
4	1638	135.31092236231	137
4	1676	137.763566777037	138
4	1676	137.763566777037	139
4	1698	139.624284672169	140
4	1698	139.624284672169	141
4	1724	140.810995323018	142
4	1724	140.810995323018	143
4	1745	141.821012710762	144
4	1745	141.821012710762	145
4	1776	143.35413041137	146
4	1776	143.35413041137	147
4	1788	145.264564251818	148
4	1788	145.264564251818	149
4	1810	146.578651929588	150
4	1810	146.578651929588	151
4	1828	147.652966938089	152
4	1828	147.652966938089	153
4	1845	149.464936788189	154
4	1845	149.464936788189	155
4	1867	150.562804108081	156
4	1867	150.562804108081	157
4	1895	153.234873586178	158
4	1895	153.234873586178	159
4	1920	155.056159620267	160
4	1920	155.056159620267	161
4	1945	156.990930614864	162
4	1945	156.990930614864	163
4	1966	160.001810631199	164
4	1966	160.001810631199	165
4	2012	168.10801135644	166
4	2012	168.10801135644	167
4	2024	169.355945879775	168
4	2024	169.355945879775	169
4	2042	170.798258794815	170
4	2042	170.798258794815	171
4	2064	172.625107394534	172
4	2064	172.625107394534	173
4	2086	174.432231807114	174
4	2086	174.432231807114	175
4	2108	175.486565325896	176
4	2108	175.486565325896	177
4	2125	178.709505365669	178
4	2125	178.709505365669	179
4	2144	180.616814419922	180
4	2144	180.616814419922	181
4	2168	181.981248084302	182
4	2168	181.981248084302	183
4	2193	184.801920564663	184
4	2193	184.801920564663	185
4	2218	186.499544348691	186
4	2218	186.499544348691	187
4	2243	187.806272769496	188
4	2243	187.806272769496	189
4	2265	188.993237232454	190
4	2265	188.993237232454	191
4	2287	190.459189775412	192
4	2287	190.459189775412	193
4	2309	192.097934508653	194
4	2309	192.097934508653	195
4	2322	193.420201935806	196
4	2322	193.420201935806	197
4	2344	196.680087176018	198
4	2344	196.680087176018	199
4	2368	198.232709799092	200
4	2368	198.232709799092	201
4	2402	199.411906693789	202
4	2402	199.411906693789	203
4	2412	200.808227271717	204
4	2412	200.808227271717	205
4	2434	201.874558345628	206
4	2434	201.874558345628	207
4	2461	203.203520285542	208
4	2461	203.203520285542	209
4	2482	206.443586532787	210
4	2482	206.443586532787	211
4	2502	208.372561842731	212
4	2502	208.372561842731	213
4	2539	211.475757515712	214
4	2539	211.475757515712	215
4	2549	213.400919316384	216
4	2549	213.400919316384	217
4	2578	216.877888910694	218
4	2578	216.877888910694	219
4	2611	219.389286401325	220
4	2611	219.389286401325	221
4	2636	221.993189277957	222
4	2636	221.993189277957	223
4	2664	223.514203872189	224
4	2664	223.514203872189	225
4	2677	225.381559269474	226
4	2677	225.381559269474	227
4	2702	228.2526307629	228
4	2702	228.2526307629	229
4	2727	229.469466586099	230
4	2727	229.469466586099	231
4	2752	231.389702918401	232
4	2752	231.389702918401	233
4	2786	233.02061471848	234
4	2786	233.02061471848	235
4	2811	234.398361742249	236
4	2811	234.398361742249	237
4	2825	237.499925168865	238
4	2825	237.499925168865	239
5	37	2.29443832894	0
5	37	2.29443832894	1
5	37	2.29443832894	2
5	60	3.739668274984	3
5	60	3.739668274984	4
5	60	3.739668274984	5
5	84	5.049612816144	6
5	84	5.049612816144	7
5	84	5.049612816144	8
5	127	8.353663856869	9
5	127	8.353663856869	10
5	127	8.353663856869	11
5	145	9.795626478133	12
5	145	9.795626478133	13
5	145	9.795626478133	14
5	195	12.22888499927	15
5	195	12.22888499927	16
5	195	12.22888499927	17
5	258	20.037005132262	18
5	258	20.037005132262	19
5	258	20.037005132262	20
5	273	21.208664102762	21
5	273	21.208664102762	22
5	273	21.208664102762	23
5	320	24.932170488313	24
5	320	24.932170488313	25
5	320	24.932170488313	26
5	363	28.045484256941	27
5	363	28.045484256941	28
5	363	28.045484256941	29
5	385	29.259807931934	30
5	385	29.259807931934	31
5	385	29.259807931934	32
5	423	33.593690990797	33
5	423	33.593690990797	34
5	423	33.593690990797	35
5	464	37.244835213178	36
5	464	37.244835213178	37
5	464	37.244835213178	38
5	500	39.929874869567	39
5	500	39.929874869567	40
5	500	39.929874869567	41
5	518	41.271765584361	42
5	518	41.271765584361	43
5	518	41.271765584361	44
5	567	44.396695644002	45
5	567	44.396695644002	46
5	567	44.396695644002	47
5	586	45.457993825263	48
5	586	45.457993825263	49
5	586	45.457993825263	50
5	626	48.635793717892	51
5	626	48.635793717892	52
5	626	48.635793717892	53
5	649	51.377957053152	54
5	649	51.377957053152	55
5	649	51.377957053152	56
5	679	52.886491052249	57
5	679	52.886491052249	58
5	679	52.886491052249	59
5	701	53.894926564184	60
5	701	53.894926564184	61
5	701	53.894926564184	62
5	726	55.472225964699	63
5	726	55.472225964699	64
5	726	55.472225964699	65
5	756	58.598589599097	66
5	756	58.598589599097	67
5	756	58.598589599097	68
5	816	65.614577294001	69
5	816	65.614577294001	70
5	816	65.614577294001	71
5	841	67.095102508086	72
5	841	67.095102508086	73
5	841	67.095102508086	74
5	863	68.664104377018	75
5	863	68.664104377018	76
5	863	68.664104377018	77
5	881	69.725019202281	78
5	881	69.725019202281	79
5	881	69.725019202281	80
5	927	72.726667228863	81
5	927	72.726667228863	82
5	927	72.726667228863	83
5	995	77.928802164952	84
5	995	77.928802164952	85
5	995	77.928802164952	86
5	1038	80.839958278246	87
5	1038	80.839958278246	88
5	1038	80.839958278246	89
5	1109	86.043640689043	90
5	1109	86.043640689043	91
5	1109	86.043640689043	92
5	1146	90.771865625362	93
5	1146	90.771865625362	94
5	1146	90.771865625362	95
5	1170	92.450348201119	96
5	1170	92.450348201119	97
5	1170	92.450348201119	98
5	1192	94.022977744633	99
5	1192	94.022977744633	100
5	1192	94.022977744633	101
5	1209	96.942852563697	102
5	1209	96.942852563697	103
5	1209	96.942852563697	104
5	1231	98.023834059876	105
5	1231	98.023834059876	106
5	1231	98.023834059876	107
5	1262	99.50305834921	108
5	1262	99.50305834921	109
5	1262	99.50305834921	110
5	1297	102.443220006757	111
5	1297	102.443220006757	112
5	1297	102.443220006757	113
5	1319	103.774637156885	114
5	1319	103.774637156885	115
5	1319	103.774637156885	116
5	1359	106.844796098553	117
5	1359	106.844796098553	118
5	1359	106.844796098553	119
5	1375	108.685706509502	120
5	1375	108.685706509502	121
5	1375	108.685706509502	122
5	1457	116.49885745257	123
5	1457	116.49885745257	124
5	1457	116.49885745257	125
5	1503	121.503492374365	126
5	1503	121.503492374365	127
5	1503	121.503492374365	128
5	1526	123.24075413528	129
5	1526	123.24075413528	130
5	1526	123.24075413528	131
5	1552	124.570228179208	132
5	1552	124.570228179208	133
5	1552	124.570228179208	134
5	1611	132.271655310438	135
5	1611	132.271655310438	136
5	1611	132.271655310438	137
5	1643	135.317108273533	138
5	1643	135.317108273533	139
5	1643	135.317108273533	140
5	1669	136.574594216551	141
5	1669	136.574594216551	142
5	1669	136.574594216551	143
5	1691	137.863304907701	144
5	1691	137.863304907701	145
5	1691	137.863304907701	146
5	1713	139.671139410847	147
5	1713	139.671139410847	148
5	1713	139.671139410847	149
5	1738	140.841391808925	150
5	1738	140.841391808925	151
5	1738	140.841391808925	152
5	1775	143.351713538852	153
5	1775	143.351713538852	154
5	1775	143.351713538852	155
5	1803	145.312570432089	156
5	1803	145.312570432089	157
5	1803	145.312570432089	158
5	1853	149.491746111582	159
5	1853	149.491746111582	160
5	1853	149.491746111582	161
5	1875	150.590690316045	162
5	1875	150.590690316045	163
5	1875	150.590690316045	164
5	1910	153.280219779964	165
5	1910	153.280219779964	166
5	1910	153.280219779964	167
5	1933	155.100425389726	168
5	1933	155.100425389726	169
5	1933	155.100425389726	170
5	2057	170.86299469546	171
5	2057	170.86299469546	172
5	2057	170.86299469546	173
5	2079	172.69402691231	174
5	2079	172.69402691231	175
5	2079	172.69402691231	176
5	2101	174.515642685794	177
5	2101	174.515642685794	178
5	2101	174.515642685794	179
5	2154	180.636018618879	180
5	2154	180.636018618879	181
5	2154	180.636018618879	182
5	2183	182.023862763557	183
5	2183	182.023862763557	184
5	2183	182.023862763557	185
5	2208	184.834774516411	186
5	2208	184.834774516411	187
5	2208	184.834774516411	188
5	2233	186.549886382626	189
5	2233	186.549886382626	190
5	2233	186.549886382626	191
5	2254	187.846894519155	192
5	2254	187.846894519155	193
5	2254	187.846894519155	194
5	2280	189.067547863198	195
5	2280	189.067547863198	196
5	2280	189.067547863198	197
5	2361	196.750126070461	198
5	2361	196.750126070461	199
5	2361	196.750126070461	200
5	2379	198.260337316347	201
5	2379	198.260337316347	202
5	2379	198.260337316347	203
5	2405	199.435793354762	204
5	2405	199.435793354762	205
5	2405	199.435793354762	206
5	2427	200.841984124771	207
5	2427	200.841984124771	208
5	2427	200.841984124771	209
5	2449	201.930697957773	210
5	2449	201.930697957773	211
5	2449	201.930697957773	212
5	2468	203.217912164685	213
5	2468	203.217912164685	214
5	2468	203.217912164685	215
5	2513	208.42452578572	216
5	2513	208.42452578572	217
5	2513	208.42452578572	218
5	2529	209.732797991873	219
5	2529	209.732797991873	220
5	2529	209.732797991873	221
5	2593	216.915245224297	222
5	2593	216.915245224297	223
5	2593	216.915245224297	224
5	2692	225.437403004192	225
5	2692	225.437403004192	226
5	2692	225.437403004192	227
5	2709	228.287654675163	228
5	2709	228.287654675163	229
5	2709	228.287654675163	230
5	2738	229.500009722453	231
5	2738	229.500009722453	232
5	2738	229.500009722453	233
5	2760	231.423650907592	234
5	2760	231.423650907592	235
5	2760	231.423650907592	236
5	2792	233.042597058989	237
5	2792	233.042597058989	238
5	2792	233.042597058989	239
5	2835	237.531938863452	240
5	2835	237.531938863452	241
5	2835	237.531938863452	242
6	59	3.73637716444	0
6	59	3.73637716444	1
6	103	6.898518213701	2
6	103	6.898518213701	3
6	128	8.356379302989	4
6	128	8.356379302989	5
6	192	12.21515148211	6
6	192	12.21515148211	7
6	342	26.404971338964	8
6	342	26.404971338964	9
6	449	36.224842855631	10
6	449	36.224842855631	11
6	471	37.260985567759	12
6	471	37.260985567759	13
6	504	39.940269921048	14
6	504	39.940269921048	15
6	529	41.319472978688	16
6	529	41.319472978688	17
6	543	42.908140134588	18
6	543	42.908140134588	19
6	564	44.377030186768	20
6	564	44.377030186768	21
6	658	51.392170003966	22
6	658	51.392170003966	23
6	705	53.915605731854	24
6	705	53.915605731854	25
6	817	65.619682300702	26
6	817	65.619682300702	27
6	889	69.778940527881	28
6	889	69.778940527881	29
6	907	71.689261566872	30
6	907	71.689261566872	31
6	953	74.351561650906	32
6	953	74.351561650906	33
6	971	76.315720260345	34
6	971	76.315720260345	35
6	1017	79.455098145413	36
6	1017	79.455098145413	37
6	1102	86.018822712192	38
6	1102	86.018822712192	39
6	1145	90.76219869258	40
6	1145	90.76219869258	41
6	1261	99.499129163559	42
6	1261	99.499129163559	43
6	1385	108.734714573442	44
6	1385	108.734714573442	45
6	1406	109.892508635997	46
6	1406	109.892508635997	47
6	1428	113.001950016183	48
6	1428	113.001950016183	49
6	1512	121.519349277691	50
6	1512	121.519349277691	51
6	1556	124.58257055417	52
6	1556	124.58257055417	53
6	1642	135.31162075938	54
6	1642	135.31162075938	55
6	1666	136.546565260813	56
6	1666	136.546565260813	57
6	1714	139.675514993517	58
6	1714	139.675514993517	59
6	1777	143.356254264458	60
6	1777	143.356254264458	61
6	1836	147.66646472199	62
6	1836	147.66646472199	63
6	1886	150.62337850826	64
6	1886	150.62337850826	65
6	1914	153.290469603449	66
6	1914	153.290469603449	67
6	1932	155.094458119054	68
6	1932	155.094458119054	69
6	1981	160.062544103749	70
6	1981	160.062544103749	71
6	2016	168.115758578748	72
6	2016	168.115758578748	73
6	2156	180.641479610268	74
6	2156	180.641479610268	75
6	2209	184.843979388327	76
6	2209	184.843979388327	77
6	2234	186.551336505284	78
6	2234	186.551336505284	79
6	2302	190.51287165309	80
6	2302	190.51287165309	81
6	2355	196.706622504693	82
6	2355	196.706622504693	83
6	2496	206.498640475969	84
6	2496	206.498640475969	85
6	2626	219.497487343888	86
6	2626	219.497487343888	87
6	2650	222.031810445399	88
6	2650	222.031810445399	89
6	2667	223.533522129223	90
6	2667	223.533522129223	91
6	2721	228.313956575884	92
6	2721	228.313956575884	93
6	2746	229.525831871293	94
6	2746	229.525831871293	95
6	2787	233.022454935136	96
6	2787	233.022454935136	97
7	366	28.055484256941	0
7	682	52.896491052249	1
7	820	65.624577294001	2
7	844	67.105102508086	3
7	866	68.674104377018	4
7	930	72.736667228863	5
7	955	74.361561650906	6
7	1173	92.460348201119	7
7	1408	109.902508635997	8
7	1647	135.32162075938	9
7	1938	155.104458119054	10
7	2212	184.844774516411	11

