version 2
run General-1-20230921-22:37:28-7196
attr configname General
attr datetime 20230921-22:37:28
attr experiment General
attr inifile omnetpp.ini
attr iterationvars ""
attr iterationvarsf ""
attr measurement ""
attr network Network3
attr processid 7196
attr repetition 1
attr replication #1
attr resultdir results
attr runnumber 1
attr seedset 1
param Network3.node[*].transmissionTime "uniform(1s, 2s)"
param Network3.node[*].delayTime "uniform(0.01s, 0.2s)"
param Network3.node[*].processingTime exponential(0.01s)
param Network3.node[0].lossProbability 0
param Network3.node[1].lossProbability 0.3
param Network3.node[2].lossProbability 0.3
param Network3.node[3].lossProbability "0.3 / 2"
param Network3.node[4].lossProbability "0.3 / 2"
param Network3.node[6].lossProbability "0.3 * 2"
param Network3.node[7].lossProbability "0.3 * 2"
param Network3.node[5].lossProbability "0.3 * 3"

vector 0 Network3.node[0] txVector ETV
vector 1 Network3.node[1] txVector ETV
vector 2 Network3.node[4] txVector ETV
vector 3 Network3.node[2] txVector ETV
vector 4 Network3.node[3] txVector ETV
vector 5 Network3.node[7] txVector ETV
vector 6 Network3.node[6] txVector ETV
vector 7 Network3.node[5] rxVector ETV
0	1	0.089234179703	0
0	1	0.089234179703	1
0	12	2.086418987836	2
0	12	2.086418987836	3
0	34	3.272679199117	4
0	34	3.272679199117	5
0	59	4.831369026449	6
0	59	4.831369026449	7
0	77	6.501897067648	8
0	77	6.501897067648	9
0	95	7.536068377669	10
0	95	7.536068377669	11
0	98	9.439438548989	12
0	98	9.439438548989	13
0	120	10.569467118129	14
0	120	10.569467118129	15
0	134	11.67180154857	16
0	134	11.67180154857	17
0	156	13.186690656121	18
0	156	13.186690656121	19
0	177	14.937502758696	20
0	177	14.937502758696	21
0	202	16.435611828116	22
0	202	16.435611828116	23
0	223	17.962669934032	24
0	223	17.962669934032	25
0	244	19.705434761129	26
0	244	19.705434761129	27
0	262	20.733741250241	28
0	262	20.733741250241	29
0	284	22.703336995913	30
0	284	22.703336995913	31
0	287	23.763254690802	32
0	287	23.763254690802	33
0	309	25.700445016733	34
0	309	25.700445016733	35
0	331	26.852582174007	36
0	331	26.852582174007	37
0	334	28.503702739373	38
0	334	28.503702739373	39
0	356	29.990047845876	40
0	356	29.990047845876	41
0	367	31.056382678569	42
0	367	31.056382678569	43
0	370	32.412846360475	44
0	370	32.412846360475	45
0	373	34.217600925945	46
0	373	34.217600925945	47
0	398	36.148613854431	48
0	398	36.148613854431	49
0	416	38.097630175649	50
0	416	38.097630175649	51
0	434	40.023811602619	52
0	434	40.023811602619	53
0	455	41.971781813426	54
0	455	41.971781813426	55
0	476	43.213270949785	56
0	476	43.213270949785	57
0	494	44.646947303441	58
0	494	44.646947303441	59
0	508	46.067140984003	60
0	508	46.067140984003	61
0	522	47.671857084733	62
0	522	47.671857084733	63
0	532	49.530170922753	64
0	532	49.530170922753	65
0	557	51.200959713784	66
0	557	51.200959713784	67
0	575	52.420826011923	68
0	575	52.420826011923	69
0	589	53.605940314595	70
0	589	53.605940314595	71
0	595	55.242230928157	72
0	595	55.242230928157	73
0	616	56.480441843279	74
0	616	56.480441843279	75
0	634	58.07295370696	76
0	634	58.07295370696	77
0	652	59.281148146027	78
0	652	59.281148146027	79
0	674	60.433819795381	80
0	674	60.433819795381	81
0	680	62.306742174672	82
0	680	62.306742174672	83
0	705	64.173350445814	84
0	705	64.173350445814	85
0	708	65.487105827201	86
0	708	65.487105827201	87
0	726	67.119409142881	88
0	726	67.119409142881	89
0	744	68.660968519868	90
0	744	68.660968519868	91
0	762	69.821363701839	92
0	762	69.821363701839	93
0	784	71.402941111596	94
0	784	71.402941111596	95
0	806	72.700272496212	96
0	806	72.700272496212	97
0	812	74.409659749018	98
0	812	74.409659749018	99
0	834	75.631092484696	100
0	834	75.631092484696	101
0	848	77.059861259191	102
0	848	77.059861259191	103
0	873	78.518445072352	104
0	873	78.518445072352	105
0	879	80.512809868093	106
0	879	80.512809868093	107
0	904	82.231899228302	108
0	904	82.231899228302	109
0	926	84.137708726461	110
0	926	84.137708726461	111
0	947	85.402006204595	112
0	947	85.402006204595	113
0	966	86.630611013976	114
0	966	86.630611013976	115
0	987	88.320838887367	116
0	987	88.320838887367	117
0	1005	90.26981590328	118
0	1005	90.26981590328	119
0	1023	91.420971941326	120
0	1023	91.420971941326	121
0	1026	92.82012533921	122
0	1026	92.82012533921	123
0	1036	94.048939012114	124
0	1036	94.048939012114	125
0	1054	95.619654859074	126
0	1054	95.619654859074	127
0	1076	96.685026576168	128
0	1076	96.685026576168	129
0	1094	97.698162930909	130
0	1094	97.698162930909	131
0	1112	99.018115761581	132
0	1112	99.018115761581	133
0	1134	100.522634930567	134
0	1134	100.522634930567	135
0	1140	102.437423616772	136
0	1140	102.437423616772	137
0	1158	103.921852060718	138
0	1158	103.921852060718	139
0	1180	105.274281689323	140
0	1180	105.274281689323	141
0	1202	106.582923635033	142
0	1202	106.582923635033	143
0	1223	108.382700172144	144
0	1223	108.382700172144	145
0	1241	109.483421429184	146
0	1241	109.483421429184	147
0	1266	110.812240689418	148
0	1266	110.812240689418	149
0	1287	112.237802075346	150
0	1287	112.237802075346	151
0	1301	113.685489300297	152
0	1301	113.685489300297	153
0	1307	115.585762253388	154
0	1307	115.585762253388	155
0	1321	117.369787075215	156
0	1321	117.369787075215	157
0	1346	118.953886899988	158
0	1346	118.953886899988	159
0	1371	120.712633833646	160
0	1371	120.712633833646	161
0	1393	121.889643206851	162
0	1393	121.889643206851	163
0	1407	123.799626719796	164
0	1407	123.799626719796	165
0	1428	124.839722088662	166
0	1428	124.839722088662	167
0	1450	126.717082561583	168
0	1450	126.717082561583	169
0	1475	128.215138186591	170
0	1475	128.215138186591	171
0	1497	129.918637502829	172
0	1497	129.918637502829	173
0	1518	131.778189273442	174
0	1518	131.778189273442	175
0	1532	133.283931293881	176
0	1532	133.283931293881	177
0	1538	134.999876996858	178
0	1538	134.999876996858	179
0	1544	136.506956921548	180
0	1544	136.506956921548	181
0	1554	138.284805401352	182
0	1554	138.284805401352	183
0	1576	139.45741002111	184
0	1576	139.45741002111	185
0	1598	140.709443100619	186
0	1598	140.709443100619	187
0	1623	142.56479951775	188
0	1623	142.56479951775	189
0	1645	143.997351844686	190
0	1645	143.997351844686	191
0	1667	145.479449456216	192
0	1667	145.479449456216	193
0	1689	147.289896402632	194
0	1689	147.289896402632	195
0	1711	148.963142642177	196
0	1711	148.963142642177	197
0	1736	150.945938669735	198
0	1736	150.945938669735	199
0	1750	152.010678650237	200
0	1750	152.010678650237	201
0	1772	153.058671211017	202
0	1772	153.058671211017	203
0	1783	154.584340654671	204
0	1783	154.584340654671	205
0	1805	156.556444365423	206
0	1805	156.556444365423	207
0	1827	158.528164389202	208
0	1827	158.528164389202	209
0	1845	159.628816136516	210
0	1845	159.628816136516	211
0	1863	161.08955859382	212
0	1863	161.08955859382	213
0	1888	162.952874654562	214
0	1888	162.952874654562	215
0	1906	164.144550394856	216
0	1906	164.144550394856	217
0	1931	165.297154381995	218
0	1931	165.297154381995	219
0	1949	167.03321084183	220
0	1949	167.03321084183	221
0	1963	168.296136241065	222
0	1963	168.296136241065	223
0	1985	169.343654193109	224
0	1985	169.343654193109	225
0	2007	171.050685946023	226
0	2007	171.050685946023	227
0	2018	172.201207850253	228
0	2018	172.201207850253	229
0	2037	173.895063259531	230
0	2037	173.895063259531	231
0	2059	175.710887093455	232
0	2059	175.710887093455	233
0	2065	176.795516095715	234
0	2065	176.795516095715	235
0	2083	177.859922496494	236
0	2083	177.859922496494	237
0	2108	179.214884409107	238
0	2108	179.214884409107	239
0	2130	181.085309264142	240
0	2130	181.085309264142	241
0	2155	182.616597071648	242
0	2155	182.616597071648	243
0	2177	183.674408603585	244
0	2177	183.674408603585	245
0	2199	185.146103270244	246
0	2199	185.146103270244	247
0	2205	186.409929759693	248
0	2205	186.409929759693	249
0	2227	187.84441732977	250
0	2227	187.84441732977	251
0	2233	189.370324857658	252
0	2233	189.370324857658	253
0	2239	190.604680762053	254
0	2239	190.604680762053	255
0	2261	192.250103341308	256
0	2261	192.250103341308	257
0	2283	194.173499727281	258
0	2283	194.173499727281	259
0	2304	195.866647091354	260
0	2304	195.866647091354	261
0	2326	197.770750078265	262
0	2326	197.770750078265	263
0	2344	199.144157206299	264
0	2344	199.144157206299	265
0	2369	200.342748707984	266
0	2369	200.342748707984	267
0	2394	201.393642808669	268
0	2394	201.393642808669	269
0	2400	202.545018383194	270
0	2400	202.545018383194	271
0	2425	204.366867755898	272
0	2425	204.366867755898	273
0	2450	205.777951501202	274
0	2450	205.777951501202	275
0	2468	207.197945057074	276
0	2468	207.197945057074	277
0	2471	208.320717188888	278
0	2471	208.320717188888	279
0	2485	210.149007070004	280
0	2485	210.149007070004	281
0	2499	211.854311671001	282
0	2499	211.854311671001	283
0	2502	213.078523240411	284
0	2502	213.078523240411	285
0	2524	215.003264047331	286
0	2524	215.003264047331	287
0	2545	216.747399964263	288
0	2545	216.747399964263	289
0	2567	218.615387711334	290
0	2567	218.615387711334	291
0	2585	220.502880773633	292
0	2585	220.502880773633	293
0	2603	221.881996637569	294
0	2603	221.881996637569	295
0	2625	223.157834000779	296
0	2625	223.157834000779	297
0	2647	224.817501473833	298
0	2647	224.817501473833	299
0	2661	226.504126520256	300
0	2661	226.504126520256	301
0	2679	228.479465763445	302
0	2679	228.479465763445	303
0	2701	230.107667007145	304
0	2701	230.107667007145	305
0	2722	231.264004051812	306
0	2722	231.264004051812	307
0	2725	233.195451067189	308
0	2725	233.195451067189	309
0	2750	234.955489242111	310
0	2750	234.955489242111	311
0	2753	236.927309318107	312
0	2753	236.927309318107	313
0	2775	238.143764434742	314
0	2775	238.143764434742	315
0	2797	239.827164058002	316
0	2797	239.827164058002	317
1	4	0.126198958082	0
1	4	0.126198958082	1
1	4	0.126198958082	2
1	15	2.100658752624	3
1	15	2.100658752624	4
1	15	2.100658752624	5
1	37	3.284191928294	6
1	37	3.284191928294	7
1	37	3.284191928294	8
1	69	4.874342958278	9
1	69	4.874342958278	10
1	69	4.874342958278	11
1	80	6.521679526464	12
1	80	6.521679526464	13
1	80	6.521679526464	14
1	101	9.44963411854	15
1	101	9.44963411854	16
1	101	9.44963411854	17
1	123	10.584812428463	18
1	123	10.584812428463	19
1	123	10.584812428463	20
1	137	11.710732359359	21
1	137	11.710732359359	22
1	137	11.710732359359	23
1	159	13.209636854396	24
1	159	13.209636854396	25
1	159	13.209636854396	26
1	180	14.94826932329	27
1	180	14.94826932329	28
1	180	14.94826932329	29
1	212	16.511640272083	30
1	212	16.511640272083	31
1	212	16.511640272083	32
1	226	17.974801322638	33
1	226	17.974801322638	34
1	226	17.974801322638	35
1	247	19.718261189966	36
1	247	19.718261189966	37
1	247	19.718261189966	38
1	266	20.751974497301	39
1	266	20.751974497301	40
1	266	20.751974497301	41
1	298	23.804338243754	42
1	298	23.804338243754	43
1	298	23.804338243754	44
1	312	25.712207837401	45
1	312	25.712207837401	46
1	312	25.712207837401	47
1	338	28.523025148483	48
1	338	28.523025148483	49
1	338	28.523025148483	50
1	359	30.004669537092	51
1	359	30.004669537092	52
1	359	30.004669537092	53
1	376	34.236194932406	54
1	376	34.236194932406	55
1	376	34.236194932406	56
1	408	36.188606463123	57
1	408	36.188606463123	58
1	408	36.188606463123	59
1	423	38.132730381749	60
1	423	38.132730381749	61
1	423	38.132730381749	62
1	441	40.051362916209	63
1	441	40.051362916209	64
1	441	40.051362916209	65
1	458	41.98202355285	66
1	458	41.98202355285	67
1	458	41.98202355285	68
1	486	43.2941703759	69
1	486	43.2941703759	70
1	486	43.2941703759	71
1	504	44.71966827541	72
1	504	44.71966827541	73
1	504	44.71966827541	74
1	518	46.112745243505	75
1	518	46.112745243505	76
1	518	46.112745243505	77
1	536	49.546165195124	78
1	536	49.546165195124	79
1	536	49.546165195124	80
1	560	51.211284493429	81
1	560	51.211284493429	82
1	560	51.211284493429	83
1	579	52.431698449746	84
1	579	52.431698449746	85
1	579	52.431698449746	86
1	598	55.25268527455	87
1	598	55.25268527455	88
1	598	55.25268527455	89
1	619	56.49418543052	90
1	619	56.49418543052	91
1	619	56.49418543052	92
1	637	58.085804342786	93
1	637	58.085804342786	94
1	637	58.085804342786	95
1	662	59.334734609997	96
1	662	59.334734609997	97
1	662	59.334734609997	98
1	683	62.346660770605	99
1	683	62.346660770605	100
1	683	62.346660770605	101
1	711	65.501341570072	102
1	711	65.501341570072	103
1	711	65.501341570072	104
1	732	67.166194618929	105
1	732	67.166194618929	106
1	732	67.166194618929	107
1	750	68.684658456223	108
1	750	68.684658456223	109
1	750	68.684658456223	110
1	780	69.907959232006	111
1	780	69.907959232006	112
1	780	69.907959232006	113
1	787	71.413221053815	114
1	787	71.413221053815	115
1	787	71.413221053815	116
1	816	74.422766827316	117
1	816	74.422766827316	118
1	816	74.422766827316	119
1	838	75.658465758092	120
1	838	75.658465758092	121
1	838	75.658465758092	122
1	852	77.071064217748	123
1	852	77.071064217748	124
1	852	77.071064217748	125
1	882	80.534461110886	126
1	882	80.534461110886	127
1	882	80.534461110886	128
1	914	82.287906206919	129
1	914	82.287906206919	130
1	914	82.287906206919	131
1	932	84.164806236907	132
1	932	84.164806236907	133
1	932	84.164806236907	134
1	950	85.430488636238	135
1	950	85.430488636238	136
1	950	85.430488636238	137
1	976	86.685362505732	138
1	976	86.685362505732	139
1	976	86.685362505732	140
1	990	88.331451782224	141
1	990	88.331451782224	142
1	990	88.331451782224	143
1	1015	90.341584593441	144
1	1015	90.341584593441	145
1	1015	90.341584593441	146
1	1039	94.116240557129	147
1	1039	94.116240557129	148
1	1039	94.116240557129	149
1	1064	95.709697692399	150
1	1064	95.709697692399	151
1	1064	95.709697692399	152
1	1079	96.699380760047	153
1	1079	96.699380760047	154
1	1079	96.699380760047	155
1	1097	97.749757174713	156
1	1097	97.749757174713	157
1	1097	97.749757174713	158
1	1115	99.039319709775	159
1	1115	99.039319709775	160
1	1115	99.039319709775	161
1	1144	102.467036135751	162
1	1144	102.467036135751	163
1	1144	102.467036135751	164
1	1176	104.010523966889	165
1	1176	104.010523966889	166
1	1176	104.010523966889	167
1	1183	105.29749593846	168
1	1183	105.29749593846	169
1	1183	105.29749593846	170
1	1205	106.593763208526	171
1	1205	106.593763208526	172
1	1205	106.593763208526	173
1	1226	108.392986939934	174
1	1226	108.392986939934	175
1	1226	108.392986939934	176
1	1244	109.497638367881	177
1	1244	109.497638367881	178
1	1244	109.497638367881	179
1	1272	110.837481635187	180
1	1272	110.837481635187	181
1	1272	110.837481635187	182
1	1290	112.256392880232	183
1	1290	112.256392880232	184
1	1290	112.256392880232	185
1	1310	115.611289833152	186
1	1310	115.611289833152	187
1	1310	115.611289833152	188
1	1324	117.384674985894	189
1	1324	117.384674985894	190
1	1324	117.384674985894	191
1	1356	119.000827600497	192
1	1356	119.000827600497	193
1	1356	119.000827600497	194
1	1375	120.734714943214	195
1	1375	120.734714943214	196
1	1375	120.734714943214	197
1	1396	121.901611465757	198
1	1396	121.901611465757	199
1	1396	121.901611465757	200
1	1411	123.81586727918	201
1	1411	123.81586727918	202
1	1411	123.81586727918	203
1	1431	124.855658528544	204
1	1431	124.855658528544	205
1	1431	124.855658528544	206
1	1456	126.745591278608	207
1	1456	126.745591278608	208
1	1456	126.745591278608	209
1	1478	128.227124116342	210
1	1478	128.227124116342	211
1	1478	128.227124116342	212
1	1501	129.93817204976	213
1	1501	129.93817204976	214
1	1501	129.93817204976	215
1	1521	131.790290950671	216
1	1521	131.790290950671	217
1	1521	131.790290950671	218
1	1558	138.300058657434	219
1	1558	138.300058657434	220
1	1558	138.300058657434	221
1	1582	139.483153416269	222
1	1582	139.483153416269	223
1	1582	139.483153416269	224
1	1605	140.741370227157	225
1	1605	140.741370227157	226
1	1605	140.741370227157	227
1	1626	142.578283079106	228
1	1626	142.578283079106	229
1	1626	142.578283079106	230
1	1655	144.044824273238	231
1	1655	144.044824273238	232
1	1655	144.044824273238	233
1	1670	145.490915276465	234
1	1670	145.490915276465	235
1	1670	145.490915276465	236
1	1693	147.306799567683	237
1	1693	147.306799567683	238
1	1693	147.306799567683	239
1	1715	148.98251547822	240
1	1715	148.98251547822	241
1	1715	148.98251547822	242
1	1739	151.003436597746	243
1	1739	151.003436597746	244
1	1739	151.003436597746	245
1	1754	152.02402811854	246
1	1754	152.02402811854	247
1	1754	152.02402811854	248
1	1775	153.068960256942	249
1	1775	153.068960256942	250
1	1775	153.068960256942	251
1	1786	154.59595220209	252
1	1786	154.59595220209	253
1	1786	154.59595220209	254
1	1808	156.566469989957	255
1	1808	156.566469989957	256
1	1808	156.566469989957	257
1	1830	158.548524410529	258
1	1830	158.548524410529	259
1	1830	158.548524410529	260
1	1848	159.639555827503	261
1	1848	159.639555827503	262
1	1848	159.639555827503	263
1	1873	161.133660950054	264
1	1873	161.133660950054	265
1	1873	161.133660950054	266
1	1898	162.989646651151	267
1	1898	162.989646651151	268
1	1898	162.989646651151	269
1	1909	164.154717542878	270
1	1909	164.154717542878	271
1	1909	164.154717542878	272
1	1934	165.310719786473	273
1	1934	165.310719786473	274
1	1934	165.310719786473	275
1	1966	168.30719027308	276
1	1966	168.30719027308	277
1	1966	168.30719027308	278
1	1989	169.361481555504	279
1	1989	169.361481555504	280
1	1989	169.361481555504	281
1	2010	171.068826906258	282
1	2010	171.068826906258	283
1	2010	171.068826906258	284
1	2021	172.222305089262	285
1	2021	172.222305089262	286
1	2021	172.222305089262	287
1	2040	173.911104259188	288
1	2040	173.911104259188	289
1	2040	173.911104259188	290
1	2069	176.811614427995	291
1	2069	176.811614427995	292
1	2069	176.811614427995	293
1	2097	177.98662616966	294
1	2097	177.98662616966	295
1	2097	177.98662616966	296
1	2112	179.236970253014	297
1	2112	179.236970253014	298
1	2112	179.236970253014	299
1	2133	181.098163320533	300
1	2133	181.098163320533	301
1	2133	181.098163320533	302
1	2159	182.633763221551	303
1	2159	182.633763221551	304
1	2159	182.633763221551	305
1	2180	183.703197441185	306
1	2180	183.703197441185	307
1	2180	183.703197441185	308
1	2209	186.425623851077	309
1	2209	186.425623851077	310
1	2209	186.425623851077	311
1	2242	190.6340156994	312
1	2242	190.6340156994	313
1	2242	190.6340156994	314
1	2264	192.282060530222	315
1	2264	192.282060530222	316
1	2264	192.282060530222	317
1	2287	194.193696074923	318
1	2287	194.193696074923	319
1	2287	194.193696074923	320
1	2308	195.87930980324	321
1	2308	195.87930980324	322
1	2308	195.87930980324	323
1	2329	197.782904905036	324
1	2329	197.782904905036	325
1	2329	197.782904905036	326
1	2347	199.154415270017	327
1	2347	199.154415270017	328
1	2347	199.154415270017	329
1	2372	200.359487833718	330
1	2372	200.359487833718	331
1	2372	200.359487833718	332
1	2403	202.564913440414	333
1	2403	202.564913440414	334
1	2403	202.564913440414	335
1	2428	204.398391745745	336
1	2428	204.398391745745	337
1	2428	204.398391745745	338
1	2453	205.790989611797	339
1	2453	205.790989611797	340
1	2453	205.790989611797	341
1	2475	208.333508219951	342
1	2475	208.333508219951	343
1	2475	208.333508219951	344
1	2488	210.160392617979	345
1	2488	210.160392617979	346
1	2488	210.160392617979	347
1	2505	213.093416968132	348
1	2505	213.093416968132	349
1	2505	213.093416968132	350
1	2527	215.02219273283	351
1	2527	215.02219273283	352
1	2527	215.02219273283	353
1	2551	216.79325164775	354
1	2551	216.79325164775	355
1	2551	216.79325164775	356
1	2577	218.654050765931	357
1	2577	218.654050765931	358
1	2577	218.654050765931	359
1	2588	220.518258114411	360
1	2588	220.518258114411	361
1	2588	220.518258114411	362
1	2607	221.900484996334	363
1	2607	221.900484996334	364
1	2607	221.900484996334	365
1	2628	223.168743841288	366
1	2628	223.168743841288	367
1	2628	223.168743841288	368
1	2664	226.518264128118	369
1	2664	226.518264128118	370
1	2664	226.518264128118	371
1	2683	228.495692014988	372
1	2683	228.495692014988	373
1	2683	228.495692014988	374
1	2704	230.117948136514	375
1	2704	230.117948136514	376
1	2704	230.117948136514	377
1	2735	233.280551708428	378
1	2735	233.280551708428	379
1	2735	233.280551708428	380
1	2756	236.942164075564	381
1	2756	236.942164075564	382
1	2756	236.942164075564	383
1	2785	238.202781946712	384
1	2785	238.202781946712	385
1	2785	238.202781946712	386
1	2803	239.858947919349	387
1	2803	239.858947919349	388
1	2803	239.858947919349	389
2	8	0.205690100955	0
2	8	0.205690100955	1
2	8	0.205690100955	2
2	27	2.129386989293	3
2	27	2.129386989293	4
2	27	2.129386989293	5
2	44	3.306778700406	6
2	44	3.306778700406	7
2	44	3.306778700406	8
2	65	4.862142089831	9
2	65	4.862142089831	10
2	65	4.862142089831	11
2	87	6.534970735595	12
2	87	6.534970735595	13
2	87	6.534970735595	14
2	105	9.462011972142	15
2	105	9.462011972142	16
2	105	9.462011972142	17
2	130	10.602590779418	18
2	130	10.602590779418	19
2	130	10.602590779418	20
2	145	11.74410432276	21
2	145	11.74410432276	22
2	145	11.74410432276	23
2	163	13.229409801629	24
2	163	13.229409801629	25
2	163	13.229409801629	26
2	184	14.958931440646	27
2	184	14.958931440646	28
2	184	14.958931440646	29
2	208	16.491875614428	30
2	208	16.491875614428	31
2	208	16.491875614428	32
2	234	17.998885211281	33
2	234	17.998885211281	34
2	234	17.998885211281	35
2	251	19.736001098488	36
2	251	19.736001098488	37
2	251	19.736001098488	38
2	269	20.757351007072	39
2	269	20.757351007072	40
2	269	20.757351007072	41
2	293	23.793971609764	42
2	293	23.793971609764	43
2	293	23.793971609764	44
2	317	25.726846206552	45
2	317	25.726846206552	46
2	317	25.726846206552	47
2	345	28.539704927039	48
2	345	28.539704927039	49
2	345	28.539704927039	50
2	382	34.249250633877	51
2	382	34.249250633877	52
2	382	34.249250633877	53
2	404	36.176828232951	54
2	404	36.176828232951	55
2	404	36.176828232951	56
2	422	38.123008082016	57
2	422	38.123008082016	58
2	422	38.123008082016	59
2	440	40.045076619761	60
2	440	40.045076619761	61
2	440	40.045076619761	62
2	462	41.999927775703	63
2	462	41.999927775703	64
2	462	41.999927775703	65
2	482	43.275546259166	66
2	482	43.275546259166	67
2	482	43.275546259166	68
2	500	44.672049840319	69
2	500	44.672049840319	70
2	500	44.672049840319	71
2	514	46.099382453072	72
2	514	46.099382453072	73
2	514	46.099382453072	74
2	528	47.727421342655	75
2	528	47.727421342655	76
2	528	47.727421342655	77
2	539	49.555219667182	78
2	539	49.555219667182	79
2	539	49.555219667182	80
2	565	51.232152906269	81
2	565	51.232152906269	82
2	565	51.232152906269	83
2	585	52.456014099091	84
2	585	52.456014099091	85
2	585	52.456014099091	86
2	607	55.282716721486	87
2	607	55.282716721486	88
2	607	55.282716721486	89
2	627	56.52822447129	90
2	627	56.52822447129	91
2	627	56.52822447129	92
2	641	58.097519104141	93
2	641	58.097519104141	94
2	641	58.097519104141	95
2	658	59.323173385817	96
2	658	59.323173385817	97
2	658	59.323173385817	98
2	691	62.375910167477	99
2	691	62.375910167477	100
2	691	62.375910167477	101
2	717	65.520893573267	102
2	717	65.520893573267	103
2	717	65.520893573267	104
2	737	67.198905485341	105
2	737	67.198905485341	106
2	737	67.198905485341	107
2	751	68.694228558781	108
2	751	68.694228558781	109
2	751	68.694228558781	110
2	768	69.850880120424	111
2	768	69.850880120424	112
2	768	69.850880120424	113
2	799	71.46831049849	114
2	799	71.46831049849	115
2	799	71.46831049849	116
2	823	74.434992407616	117
2	823	74.434992407616	118
2	823	74.434992407616	119
2	863	77.123527191444	120
2	863	77.123527191444	121
2	863	77.123527191444	122
2	886	80.545583969574	123
2	886	80.545583969574	124
2	886	80.545583969574	125
2	910	82.267389470125	126
2	910	82.267389470125	127
2	910	82.267389470125	128
2	940	84.209287611536	129
2	940	84.209287611536	130
2	940	84.209287611536	131
2	954	85.447111355004	132
2	954	85.447111355004	133
2	954	85.447111355004	134
2	972	86.675268580229	135
2	972	86.675268580229	136
2	972	86.675268580229	137
2	995	88.360051948067	138
2	995	88.360051948067	139
2	995	88.360051948067	140
2	1011	90.329759611895	141
2	1011	90.329759611895	142
2	1011	90.329759611895	143
2	1032	92.848937845475	144
2	1032	92.848937845475	145
2	1032	92.848937845475	146
2	1043	94.135263760596	147
2	1043	94.135263760596	148
2	1043	94.135263760596	149
2	1060	95.697858664862	150
2	1060	95.697858664862	151
2	1060	95.697858664862	152
2	1087	96.718182330173	153
2	1087	96.718182330173	154
2	1087	96.718182330173	155
2	1101	97.763892772904	156
2	1101	97.763892772904	157
2	1101	97.763892772904	158
2	1126	99.079739410382	159
2	1126	99.079739410382	160
2	1126	99.079739410382	161
2	1151	102.481293472422	162
2	1151	102.481293472422	163
2	1151	102.481293472422	164
2	1164	103.955716709289	165
2	1164	103.955716709289	166
2	1164	103.955716709289	167
2	1188	105.309998474509	168
2	1188	105.309998474509	169
2	1188	105.309998474509	170
2	1209	106.606090421989	171
2	1209	106.606090421989	172
2	1209	106.606090421989	173
2	1237	108.440302117347	174
2	1237	108.440302117347	175
2	1237	108.440302117347	176
2	1248	109.513591451998	177
2	1248	109.513591451998	178
2	1248	109.513591451998	179
2	1273	110.846646374493	180
2	1273	110.846646374493	181
2	1273	110.846646374493	182
2	1294	112.279141051165	183
2	1294	112.279141051165	184
2	1294	112.279141051165	185
2	1314	115.632891407857	186
2	1314	115.632891407857	187
2	1314	115.632891407857	188
2	1328	117.400640919939	189
2	1328	117.400640919939	190
2	1328	117.400640919939	191
2	1352	118.990789591607	192
2	1352	118.990789591607	193
2	1352	118.990789591607	194
2	1381	120.753687264375	195
2	1381	120.753687264375	196
2	1381	120.753687264375	197
2	1403	121.91310058144	198
2	1403	121.91310058144	199
2	1403	121.91310058144	200
2	1417	123.825906558222	201
2	1417	123.825906558222	202
2	1417	123.825906558222	203
2	1436	124.866748863601	204
2	1436	124.866748863601	205
2	1436	124.866748863601	206
2	1457	126.754540369967	207
2	1457	126.754540369967	208
2	1457	126.754540369967	209
2	1482	128.245290347466	210
2	1482	128.245290347466	211
2	1482	128.245290347466	212
2	1511	129.972529262028	213
2	1511	129.972529262028	214
2	1511	129.972529262028	215
2	1525	131.8027512373	216
2	1525	131.8027512373	217
2	1525	131.8027512373	218
2	1550	136.530505767399	219
2	1550	136.530505767399	220
2	1550	136.530505767399	221
2	1565	138.315018582834	222
2	1565	138.315018582834	223
2	1565	138.315018582834	224
2	1583	139.492594815883	225
2	1583	139.492594815883	226
2	1583	139.492594815883	227
2	1604	140.734318034465	228
2	1604	140.734318034465	229
2	1604	140.734318034465	230
2	1631	142.590203602329	231
2	1631	142.590203602329	232
2	1631	142.590203602329	233
2	1651	144.02466101839	234
2	1651	144.02466101839	235
2	1651	144.02466101839	236
2	1676	145.507129852804	237
2	1676	145.507129852804	238
2	1676	145.507129852804	239
2	1699	147.317102111561	240
2	1699	147.317102111561	241
2	1699	147.317102111561	242
2	1721	148.993346757559	243
2	1721	148.993346757559	244
2	1721	148.993346757559	245
2	1757	152.033857409403	246
2	1757	152.033857409403	247
2	1757	152.033857409403	248
2	1791	154.610483715503	249
2	1791	154.610483715503	250
2	1791	154.610483715503	251
2	1823	156.629558347321	252
2	1823	156.629558347321	253
2	1823	156.629558347321	254
2	1838	158.573551287908	255
2	1838	158.573551287908	256
2	1838	158.573551287908	257
2	1859	159.671271217608	258
2	1859	159.671271217608	259
2	1859	159.671271217608	260
2	1869	161.118766664731	261
2	1869	161.118766664731	262
2	1869	161.118766664731	263
2	1894	162.979478082403	264
2	1894	162.979478082403	265
2	1894	162.979478082403	266
2	1916	164.179023736436	267
2	1916	164.179023736436	268
2	1916	164.179023736436	269
2	1939	165.327444705434	270
2	1939	165.327444705434	271
2	1939	165.327444705434	272
2	1955	167.061017435654	273
2	1955	167.061017435654	274
2	1955	167.061017435654	275
2	1971	168.321627236112	276
2	1971	168.321627236112	277
2	1971	168.321627236112	278
2	1992	169.370263568588	279
2	1992	169.370263568588	280
2	1992	169.370263568588	281
2	2026	172.246906176626	282
2	2026	172.246906176626	283
2	2026	172.246906176626	284
2	2045	173.926766860232	285
2	2045	173.926766860232	286
2	2045	173.926766860232	287
2	2075	176.825340030808	288
2	2075	176.825340030808	289
2	2075	176.825340030808	290
2	2089	177.948149400618	291
2	2089	177.948149400618	292
2	2089	177.948149400618	293
2	2115	179.244292776721	294
2	2115	179.244292776721	295
2	2115	179.244292776721	296
2	2140	181.111910596771	297
2	2140	181.111910596771	298
2	2140	181.111910596771	299
2	2169	182.66015660094	300
2	2169	182.66015660094	301
2	2169	182.66015660094	302
2	2187	183.717439016628	303
2	2187	183.717439016628	304
2	2187	183.717439016628	305
2	2215	186.451227969139	306
2	2215	186.451227969139	307
2	2215	186.451227969139	308
2	2247	190.64977988698	309
2	2247	190.64977988698	310
2	2247	190.64977988698	311
2	2273	192.32610820107	312
2	2273	192.32610820107	313
2	2273	192.32610820107	314
2	2293	194.209188284357	315
2	2293	194.209188284357	316
2	2293	194.209188284357	317
2	2315	195.901544096011	318
2	2315	195.901544096011	319
2	2315	195.901544096011	320
2	2335	197.804225152202	321
2	2335	197.804225152202	322
2	2335	197.804225152202	323
2	2355	199.180554775636	324
2	2355	199.180554775636	325
2	2355	199.180554775636	326
2	2377	200.373490289664	327
2	2377	200.373490289664	328
2	2377	200.373490289664	329
2	2408	202.591561102885	330
2	2408	202.591561102885	331
2	2408	202.591561102885	332
2	2433	204.414819472763	333
2	2433	204.414819472763	334
2	2433	204.414819472763	335
2	2457	205.801214844436	336
2	2457	205.801214844436	337
2	2457	205.801214844436	338
2	2493	210.176750795306	339
2	2493	210.176750795306	340
2	2493	210.176750795306	341
2	2510	213.10351013368	342
2	2510	213.10351013368	343
2	2510	213.10351013368	344
2	2531	215.041954391477	345
2	2531	215.041954391477	346
2	2531	215.041954391477	347
2	2556	216.806052314685	348
2	2556	216.806052314685	349
2	2556	216.806052314685	350
2	2573	218.637909134696	351
2	2573	218.637909134696	352
2	2573	218.637909134696	353
2	2595	220.534869309313	354
2	2595	220.534869309313	355
2	2595	220.534869309313	356
2	2610	221.909858383039	357
2	2610	221.909858383039	358
2	2610	221.909858383039	359
2	2633	223.185985961768	360
2	2633	223.185985961768	361
2	2633	223.185985961768	362
2	2653	224.842765990792	363
2	2653	224.842765990792	364
2	2653	224.842765990792	365
2	2669	226.537163415799	366
2	2669	226.537163415799	367
2	2669	226.537163415799	368
2	2689	228.515188224015	369
2	2689	228.515188224015	370
2	2689	228.515188224015	371
2	2711	230.13119436521	372
2	2711	230.13119436521	373
2	2711	230.13119436521	374
2	2731	233.265018161154	375
2	2731	233.265018161154	376
2	2731	233.265018161154	377
2	2760	236.956421185588	378
2	2760	236.956421185588	379
2	2760	236.956421185588	380
2	2781	238.190821011125	381
2	2781	238.190821011125	382
2	2781	238.190821011125	383
2	2804	239.865483016657	384
2	2804	239.865483016657	385
2	2804	239.865483016657	386
3	16	2.101473513161	0
3	16	2.101473513161	1
3	38	3.284886931286	2
3	38	3.284886931286	3
3	62	4.84683541337	4
3	62	4.84683541337	5
3	81	6.522703879548	6
3	81	6.522703879548	7
3	114	9.480792030645	8
3	114	9.480792030645	9
3	124	10.591321905516	10
3	124	10.591321905516	11
3	153	11.761835423392	12
3	153	11.761835423392	13
3	171	13.253816591484	14
3	171	13.253816591484	15
3	192	14.974176238234	16
3	192	14.974176238234	17
3	205	16.45795760959	18
3	205	16.45795760959	19
3	227	17.978911958608	20
3	227	17.978911958608	21
3	259	19.749262816967	22
3	259	19.749262816967	23
3	265	20.743929483669	24
3	265	20.743929483669	25
3	290	23.77439191261	26
3	290	23.77439191261	27
3	337	28.522115764933	28
3	337	28.522115764933	29
3	377	34.245904590841	30
3	377	34.245904590841	31
3	401	36.166747883908	32
3	401	36.166747883908	33
3	419	38.112653388102	34
3	419	38.112653388102	35
3	437	40.033962931687	36
3	437	40.033962931687	37
3	467	42.015515730575	38
3	467	42.015515730575	39
3	479	43.243207390759	40
3	479	43.243207390759	41
3	497	44.66204581928	42
3	497	44.66204581928	43
3	511	46.079491790168	44
3	511	46.079491790168	45
3	525	47.697435023992	46
3	525	47.697435023992	47
3	535	49.544985253739	48
3	535	49.544985253739	49
3	569	51.238273751285	50
3	569	51.238273751285	51
3	578	52.431278834286	52
3	578	52.431278834286	53
3	592	53.620687247507	54
3	592	53.620687247507	55
3	613	55.296950548981	56
3	613	55.296950548981	57
3	631	56.545147629962	58
3	631	56.545147629962	59
3	642	58.102036991164	60
3	642	58.102036991164	61
3	655	59.302556250413	62
3	655	59.302556250413	63
3	677	60.448160313473	64
3	677	60.448160313473	65
3	702	62.401985328208	66
3	702	62.401985328208	67
3	716	65.513031078494	68
3	716	65.513031078494	69
3	729	67.139531775264	70
3	729	67.139531775264	71
3	747	68.671277233335	72
3	747	68.671277233335	73
3	765	69.838033482085	74
3	765	69.838033482085	75
3	803	71.494604909789	76
3	803	71.494604909789	77
3	809	72.714926043513	78
3	809	72.714926043513	79
3	815	74.420509599349	80
3	815	74.420509599349	81
3	837	75.650940754597	82
3	837	75.650940754597	83
3	851	77.070143025195	84
3	851	77.070143025195	85
3	876	78.543311716697	86
3	876	78.543311716697	87
3	890	80.570554647963	88
3	890	80.570554647963	89
3	907	82.254316752252	90
3	907	82.254316752252	91
3	929	84.151427877811	92
3	929	84.151427877811	93
3	969	86.661842312881	94
3	969	86.661842312881	95
3	994	88.352598366311	96
3	994	88.352598366311	97
3	1008	90.289157756358	98
3	1008	90.289157756358	99
3	1029	92.831618632988	100
3	1029	92.831618632988	101
3	1047	94.159708248613	102
3	1047	94.159708248613	103
3	1057	95.65082886834	104
3	1057	95.65082886834	105
3	1080	96.701800728086	106
3	1080	96.701800728086	107
3	1106	97.776813346191	108
3	1106	97.776813346191	109
3	1116	99.042819043234	110
3	1116	99.042819043234	111
3	1137	100.54912186656	112
3	1137	100.54912186656	113
3	1143	102.465166716895	114
3	1143	102.465166716895	115
3	1161	103.931960363007	116
3	1161	103.931960363007	117
3	1196	105.324731888023	118
3	1196	105.324731888023	119
3	1213	106.623382188078	120
3	1213	106.623382188078	121
3	1227	108.393404060335	122
3	1227	108.393404060335	123
3	1253	109.532778244044	124
3	1253	109.532778244044	125
3	1269	110.822818474726	126
3	1269	110.822818474726	127
3	1298	112.297547185422	128
3	1298	112.297547185422	129
3	1304	113.710979872803	130
3	1304	113.710979872803	131
3	1318	115.643610621881	132
3	1318	115.643610621881	133
3	1340	117.423475236497	134
3	1340	117.423475236497	135
3	1349	118.977531112215	136
3	1349	118.977531112215	137
3	1374	120.731736868648	138
3	1374	120.731736868648	139
3	1397	121.901780431951	140
3	1397	121.901780431951	141
3	1410	123.810349232196	142
3	1410	123.810349232196	143
3	1432	124.865068056638	144
3	1432	124.865068056638	145
3	1453	126.727784714894	146
3	1453	126.727784714894	147
3	1486	128.261072820765	148
3	1486	128.261072820765	149
3	1500	129.936239322323	150
3	1500	129.936239322323	151
3	1529	131.821710180776	152
3	1529	131.821710180776	153
3	1535	133.293956791714	154
3	1535	133.293956791714	155
3	1541	135.033399559598	156
3	1541	135.033399559598	157
3	1547	136.518523766238	158
3	1547	136.518523766238	159
3	1557	138.297568454972	160
3	1557	138.297568454972	161
3	1579	139.473082896488	162
3	1579	139.473082896488	163
3	1601	140.721481222219	164
3	1601	140.721481222219	165
3	1627	142.582599030129	166
3	1627	142.582599030129	167
3	1648	144.012879596588	168
3	1648	144.012879596588	169
3	1674	145.504381660052	170
3	1674	145.504381660052	171
3	1692	147.299976501455	172
3	1692	147.299976501455	173
3	1714	148.973154469883	174
3	1714	148.973154469883	175
3	1753	152.021308438879	176
3	1753	152.021308438879	177
3	1787	154.603495870061	178
3	1787	154.603495870061	179
3	1809	156.567114733258	180
3	1809	156.567114733258	181
3	1831	158.5556118451	182
3	1831	158.5556118451	183
3	1849	159.642898052179	184
3	1849	159.642898052179	185
3	1866	161.102999762875	186
3	1866	161.102999762875	187
3	1891	162.967033242394	188
3	1891	162.967033242394	189
3	1910	164.155758479951	190
3	1910	164.155758479951	191
3	1938	165.326725678805	192
3	1938	165.326725678805	193
3	1952	167.047191190474	194
3	1952	167.047191190474	195
3	1988	169.356528221311	196
3	1988	169.356528221311	197
3	2041	173.917497531262	198
3	2041	173.917497531262	199
3	2062	175.723566827303	200
3	2062	175.723566827303	201
3	2068	176.808932358979	202
3	2068	176.808932358979	203
3	2086	177.900387233922	204
3	2086	177.900387233922	205
3	2111	179.234171253179	206
3	2111	179.234171253179	207
3	2134	181.098805953421	208
3	2134	181.098805953421	209
3	2158	182.628636004667	210
3	2158	182.628636004667	211
3	2181	183.704375650054	212
3	2181	183.704375650054	213
3	2202	185.170083940675	214
3	2202	185.170083940675	215
3	2208	186.421904622597	216
3	2208	186.421904622597	217
3	2230	187.863329010474	218
3	2230	187.863329010474	219
3	2236	189.395850764796	220
3	2236	189.395850764796	221
3	2255	190.665843936224	222
3	2255	190.665843936224	223
3	2280	192.339801356723	224
3	2280	192.339801356723	225
3	2286	194.187003732515	226
3	2286	194.187003732515	227
3	2307	195.878591181187	228
3	2307	195.878591181187	229
3	2333	197.797939621045	230
3	2333	197.797939621045	231
3	2351	199.167228256752	232
3	2351	199.167228256752	233
3	2376	200.37339798712	234
3	2376	200.37339798712	235
3	2397	201.425549286134	236
3	2397	201.425549286134	237
3	2407	202.586322800263	238
3	2407	202.586322800263	239
3	2441	204.425930899087	240
3	2441	204.425930899087	241
3	2474	208.331204570971	242
3	2474	208.331204570971	243
3	2492	210.174190423836	244
3	2492	210.174190423836	245
3	2506	213.095313333872	246
3	2506	213.095313333872	247
3	2539	215.059961253461	248
3	2539	215.059961253461	249
3	2548	216.759624044105	250
3	2548	216.759624044105	251
3	2570	218.625986670094	252
3	2570	218.625986670094	253
3	2589	220.522533376762	254
3	2589	220.522533376762	255
3	2606	221.894866563088	256
3	2606	221.894866563088	257
3	2641	223.208043474808	258
3	2641	223.208043474808	259
3	2650	224.828244510606	260
3	2650	224.828244510606	261
3	2676	226.557200712521	262
3	2676	226.557200712521	263
3	2682	228.491165052939	264
3	2682	228.491165052939	265
3	2705	230.119599387512	266
3	2705	230.119599387512	267
3	2728	233.230613493333	268
3	2728	233.230613493333	269
3	2762	236.964177463364	270
3	2762	236.964177463364	271
3	2778	238.175365042699	272
3	2778	238.175365042699	273
3	2800	239.84309203891	274
3	2800	239.84309203891	275
4	22	2.114416944551	0
4	22	2.114416944551	1
4	22	2.114416944551	2
4	45	3.310425141886	3
4	45	3.310425141886	4
4	45	3.310425141886	5
4	73	4.899636039865	6
4	73	4.899636039865	7
4	73	4.899636039865	8
4	91	6.54725174518	9
4	91	6.54725174518	10
4	91	6.54725174518	11
4	106	9.462720406623	12
4	106	9.462720406623	13
4	106	9.462720406623	14
4	141	11.722211267362	15
4	141	11.722211267362	16
4	141	11.722211267362	17
4	164	13.23353756673	18
4	164	13.23353756673	19
4	164	13.23353756673	20
4	185	14.962659185903	21
4	185	14.962659185903	22
4	185	14.962659185903	23
4	216	16.533381076713	24
4	216	16.533381076713	25
4	216	16.533381076713	26
4	233	17.998820528538	27
4	233	17.998820528538	28
4	233	17.998820528538	29
4	252	19.736309174903	30
4	252	19.736309174903	31
4	252	19.736309174903	32
4	276	20.771466461915	33
4	276	20.771466461915	34
4	276	20.771466461915	35
4	305	23.817549186754	36
4	305	23.817549186754	37
4	305	23.817549186754	38
4	316	25.72272096071	39
4	316	25.72272096071	40
4	316	25.72272096071	41
4	344	28.534603772757	42
4	344	28.534603772757	43
4	344	28.534603772757	44
4	363	30.015672374053	45
4	363	30.015672374053	46
4	363	30.015672374053	47
4	381	34.246877304214	48
4	381	34.246877304214	49
4	381	34.246877304214	50
4	412	36.207877717519	51
4	412	36.207877717519	52
4	412	36.207877717519	53
4	430	38.149775743036	54
4	430	38.149775743036	55
4	430	38.149775743036	56
4	448	40.065590096913	57
4	448	40.065590096913	58
4	448	40.065590096913	59
4	463	42.008048354004	60
4	463	42.008048354004	61
4	463	42.008048354004	62
4	490	43.313638678957	63
4	490	43.313638678957	64
4	490	43.313638678957	65
4	543	49.557560054186	66
4	543	49.557560054186	67
4	543	49.557560054186	68
4	564	51.224434454232	69
4	564	51.224434454232	70
4	564	51.224434454232	71
4	602	55.263444621993	72
4	602	55.263444621993	73
4	602	55.263444621993	74
4	623	56.507157615153	75
4	623	56.507157615153	76
4	623	56.507157615153	77
4	643	58.105095651842	78
4	643	58.105095651842	79
4	643	58.105095651842	80
4	670	59.367667296237	81
4	670	59.367667296237	82
4	670	59.367667296237	83
4	687	62.357700423309	84
4	687	62.357700423309	85
4	687	62.357700423309	86
4	715	65.511808935069	87
4	715	65.511808935069	88
4	715	65.511808935069	89
4	736	67.192753482263	90
4	736	67.192753482263	91
4	736	67.192753482263	92
4	755	68.701198931098	93
4	755	68.701198931098	94
4	755	68.701198931098	95
4	776	69.890855968191	96
4	776	69.890855968191	97
4	776	69.890855968191	98
4	791	71.425032551933	99
4	791	71.425032551933	100
4	791	71.425032551933	101
4	822	74.433235767892	102
4	822	74.433235767892	103
4	822	74.433235767892	104
4	844	75.668650785732	105
4	844	75.668650785732	106
4	844	75.668650785732	107
4	858	77.099154088244	108
4	858	77.099154088244	109
4	858	77.099154088244	110
4	897	80.600249380368	111
4	897	80.600249380368	112
4	897	80.600249380368	113
4	918	82.299810915658	114
4	918	82.299810915658	115
4	918	82.299810915658	116
4	936	84.181770486964	117
4	936	84.181770486964	118
4	936	84.181770486964	119
4	955	85.450988388672	120
4	955	85.450988388672	121
4	955	85.450988388672	122
4	980	86.702645433858	123
4	980	86.702645433858	124
4	980	86.702645433858	125
4	998	88.366734916433	126
4	998	88.366734916433	127
4	998	88.366734916433	128
4	1019	90.372726726184	129
4	1019	90.372726726184	130
4	1019	90.372726726184	131
4	1048	94.16353301801	132
4	1048	94.16353301801	133
4	1048	94.16353301801	134
4	1069	95.721513252656	135
4	1069	95.721513252656	136
4	1069	95.721513252656	137
4	1086	96.71517516119	138
4	1086	96.71517516119	139
4	1086	96.71517516119	140
4	1102	97.767178367169	141
4	1102	97.767178367169	142
4	1102	97.767178367169	143
4	1120	99.049551527353	144
4	1120	99.049551527353	145
4	1120	99.049551527353	146
4	1150	102.479889799641	147
4	1150	102.479889799641	148
4	1150	102.479889799641	149
4	1172	103.996161606721	150
4	1172	103.996161606721	151
4	1172	103.996161606721	152
4	1187	105.309905350145	153
4	1187	105.309905350145	154
4	1187	105.309905350145	155
4	1214	106.628692624224	156
4	1214	106.628692624224	157
4	1214	106.628692624224	158
4	1233	108.404728493615	159
4	1233	108.404728493615	160
4	1233	108.404728493615	161
4	1252	109.530992665131	162
4	1252	109.530992665131	163
4	1252	109.530992665131	164
4	1277	110.848340766956	165
4	1277	110.848340766956	166
4	1277	110.848340766956	167
4	1329	117.402606682239	168
4	1329	117.402606682239	169
4	1329	117.402606682239	170
4	1364	119.028632283832	171
4	1364	119.028632283832	172
4	1364	119.028632283832	173
4	1382	120.759626899625	174
4	1382	120.759626899625	175
4	1382	120.759626899625	176
4	1421	123.837105706498	177
4	1421	123.837105706498	178
4	1421	123.837105706498	179
4	1446	124.895622196335	180
4	1446	124.895622196335	181
4	1446	124.895622196335	182
4	1461	126.756508699773	183
4	1461	126.756508699773	184
4	1461	126.756508699773	185
4	1493	128.285839004859	186
4	1493	128.285839004859	187
4	1493	128.285839004859	188
4	1507	129.954935838332	189
4	1507	129.954935838332	190
4	1507	129.954935838332	191
4	1564	138.311640701932	192
4	1564	138.311640701932	193
4	1564	138.311640701932	194
4	1587	139.493801043706	195
4	1587	139.493801043706	196
4	1587	139.493801043706	197
4	1612	140.754641262263	198
4	1612	140.754641262263	199
4	1612	140.754641262263	200
4	1632	142.592467865818	201
4	1632	142.592467865818	202
4	1632	142.592467865818	203
4	1659	144.059744580617	204
4	1659	144.059744580617	205
4	1659	144.059744580617	206
4	1675	145.506517752243	207
4	1675	145.506517752243	208
4	1675	145.506517752243	209
4	1703	147.336435795328	210
4	1703	147.336435795328	211
4	1703	147.336435795328	212
4	1722	148.998839119641	213
4	1722	148.998839119641	214
4	1722	148.998839119641	215
4	1743	151.04316396158	216
4	1743	151.04316396158	217
4	1743	151.04316396158	218
4	1761	152.034982088083	219
4	1761	152.034982088083	220
4	1761	152.034982088083	221
4	1779	153.079630975391	222
4	1779	153.079630975391	223
4	1779	153.079630975391	224
4	1797	154.620842568749	225
4	1797	154.620842568749	226
4	1797	154.620842568749	227
4	1813	156.577071340493	228
4	1813	156.577071340493	229
4	1813	156.577071340493	230
4	1835	158.565353272255	231
4	1835	158.565353272255	232
4	1835	158.565353272255	233
4	1855	159.657055516712	234
4	1855	159.657055516712	235
4	1855	159.657055516712	236
4	1877	161.143686858464	237
4	1877	161.143686858464	238
4	1877	161.143686858464	239
4	1902	163.010415499748	240
4	1902	163.010415499748	241
4	1902	163.010415499748	242
4	1917	164.184562458641	243
4	1917	164.184562458641	244
4	1917	164.184562458641	245
4	1940	165.328477449244	246
4	1940	165.328477449244	247
4	1940	165.328477449244	248
4	1970	168.318721312042	249
4	1970	168.318721312042	250
4	1970	168.318721312042	251
4	1996	169.37542632061	252
4	1996	169.37542632061	253
4	1996	169.37542632061	254
4	2014	171.082710461383	255
4	2014	171.082710461383	256
4	2014	171.082710461383	257
4	2025	172.239983979701	258
4	2025	172.239983979701	259
4	2025	172.239983979701	260
4	2051	173.939923319896	261
4	2051	173.939923319896	262
4	2051	173.939923319896	263
4	2079	176.836437442155	264
4	2079	176.836437442155	265
4	2079	176.836437442155	266
4	2101	178.014175645455	267
4	2101	178.014175645455	268
4	2101	178.014175645455	269
4	2119	179.250063300971	270
4	2119	179.250063300971	271
4	2119	179.250063300971	272
4	2144	181.122047246301	273
4	2144	181.122047246301	274
4	2144	181.122047246301	275
4	2165	182.644986062256	276
4	2165	182.644986062256	277
4	2165	182.644986062256	278
4	2188	183.722251569846	279
4	2188	183.722251569846	280
4	2188	183.722251569846	281
4	2223	186.499024133628	282
4	2223	186.499024133628	283
4	2223	186.499024133628	284
4	2246	190.644557233124	285
4	2246	190.644557233124	286
4	2246	190.644557233124	287
4	2268	192.293499009568	288
4	2268	192.293499009568	289
4	2268	192.293499009568	290
4	2294	194.215641202864	291
4	2294	194.215641202864	292
4	2294	194.215641202864	293
4	2314	195.89973833788	294
4	2314	195.89973833788	295
4	2314	195.89973833788	296
4	2334	197.802296833287	297
4	2334	197.802296833287	298
4	2334	197.802296833287	299
4	2352	199.172325517013	300
4	2352	199.172325517013	301
4	2352	199.172325517013	302
4	2378	200.38097871497	303
4	2378	200.38097871497	304
4	2378	200.38097871497	305
4	2409	202.596062636735	306
4	2409	202.596062636735	307
4	2409	202.596062636735	308
4	2432	204.411510288075	309
4	2432	204.411510288075	310
4	2432	204.411510288075	311
4	2461	205.818200118741	312
4	2461	205.818200118741	313
4	2461	205.818200118741	314
4	2481	208.347596196595	315
4	2481	208.347596196595	316
4	2481	208.347596196595	317
4	2513	213.110643017762	318
4	2513	213.110643017762	319
4	2513	213.110643017762	320
4	2532	215.042363663781	321
4	2532	215.042363663781	322
4	2532	215.042363663781	323
4	2555	216.80407830972	324
4	2555	216.80407830972	325
4	2555	216.80407830972	326
4	2581	218.66484690585	327
4	2581	218.66484690585	328
4	2581	218.66484690585	329
4	2596	220.53717290774	330
4	2596	220.53717290774	331
4	2596	220.53717290774	332
4	2617	221.920843579967	333
4	2617	221.920843579967	334
4	2617	221.920843579967	335
4	2632	223.182081011191	336
4	2632	223.182081011191	337
4	2632	223.182081011191	338
4	2668	226.534978920752	339
4	2668	226.534978920752	340
4	2668	226.534978920752	341
4	2693	228.533139613248	342
4	2693	228.533139613248	343
4	2693	228.533139613248	344
4	2712	230.135601708013	345
4	2712	230.135601708013	346
4	2712	230.135601708013	347
4	2743	233.355712260386	348
4	2743	233.355712260386	349
4	2743	233.355712260386	350
4	2761	236.95652818255	351
4	2761	236.95652818255	352
4	2761	236.95652818255	353
4	2793	238.23388814005	354
4	2793	238.23388814005	355
4	2793	238.23388814005	356
4	2811	239.878242005653	357
4	2811	239.878242005653	358
4	2811	239.878242005653	359
5	26	2.12702510305	0
5	26	2.12702510305	1
5	26	2.12702510305	2
5	55	3.336805005177	3
5	55	3.336805005177	4
5	55	3.336805005177	5
5	113	9.474307182407	6
5	113	9.474307182407	7
5	113	9.474307182407	8
5	146	11.748682212965	9
5	146	11.748682212965	10
5	146	11.748682212965	11
5	193	14.981184824307	12
5	193	14.981184824307	13
5	193	14.981184824307	14
5	277	20.781289151507	15
5	277	20.781289151507	16
5	277	20.781289151507	17
5	297	23.804097964508	18
5	297	23.804097964508	19
5	297	23.804097964508	20
5	327	25.776885744825	21
5	327	25.776885744825	22
5	327	25.776885744825	23
5	352	28.560768334602	24
5	352	28.560768334602	25
5	352	28.560768334602	26
5	388	34.258685404565	27
5	388	34.258685404565	28
5	388	34.258685404565	29
5	551	49.579101977811	30
5	551	49.579101977811	31
5	551	49.579101977811	32
5	663	59.334736321135	33
5	663	59.334736321135	34
5	663	59.334736321135	35
5	693	62.381940468701	36
5	693	62.381940468701	37
5	693	62.381940468701	38
5	772	69.874749962877	39
5	772	69.874749962877	40
5	772	69.874749962877	41
5	795	71.450524497671	42
5	795	71.450524497671	43
5	795	71.450524497671	44
5	830	74.449370318064	45
5	830	74.449370318064	46
5	830	74.449370318064	47
5	869	77.181146096799	48
5	869	77.181146096799	49
5	869	77.181146096799	50
5	891	80.577671848698	51
5	891	80.577671848698	52
5	891	80.577671848698	53
5	922	82.326556579452	54
5	922	82.326556579452	55
5	922	82.326556579452	56
5	962	85.480613106417	57
5	962	85.480613106417	58
5	962	85.480613106417	59
5	1065	95.713233648787	60
5	1065	95.713233648787	61
5	1065	95.713233648787	62
5	1130	99.101348806109	63
5	1130	99.101348806109	64
5	1130	99.101348806109	65
5	1168	103.980580034918	66
5	1168	103.980580034918	67
5	1168	103.980580034918	68
5	1195	105.320268362827	69
5	1195	105.320268362827	70
5	1195	105.320268362827	71
5	1254	109.537411621943	72
5	1254	109.537411621943	73
5	1254	109.537411621943	74
5	1333	117.412583432664	75
5	1333	117.412583432664	76
5	1333	117.412583432664	77
5	1357	119.003818200675	78
5	1357	119.003818200675	79
5	1357	119.003818200675	80
5	1386	120.766422633055	81
5	1386	120.766422633055	82
5	1386	120.766422633055	83
5	1442	124.878497486701	84
5	1442	124.878497486701	85
5	1442	124.878497486701	86
5	1468	126.777838139663	87
5	1468	126.777838139663	88
5	1468	126.777838139663	89
5	1489	128.274948945289	90
5	1489	128.274948945289	91
5	1489	128.274948945289	92
5	1572	138.329082415872	93
5	1572	138.329082415872	94
5	1572	138.329082415872	95
5	1594	139.511556976557	96
5	1594	139.511556976557	97
5	1594	139.511556976557	98
5	1616	140.769585428515	99
5	1616	140.769585428515	100
5	1616	140.769585428515	101
5	1641	142.616298761	102
5	1641	142.616298761	103
5	1641	142.616298761	104
5	1663	144.071555394901	105
5	1663	144.071555394901	106
5	1663	144.071555394901	107
5	1685	145.52070995461	108
5	1685	145.52070995461	109
5	1685	145.52070995461	110
5	1704	147.337138969998	111
5	1704	147.337138969998	112
5	1704	147.337138969998	113
5	1730	149.012491425576	114
5	1730	149.012491425576	115
5	1730	149.012491425576	116
5	1768	152.075422920853	117
5	1768	152.075422920853	118
5	1768	152.075422920853	119
5	1798	154.624868034189	120
5	1798	154.624868034189	121
5	1798	154.624868034189	122
5	1819	156.595538421515	123
5	1819	156.595538421515	124
5	1819	156.595538421515	125
5	1881	161.15455554652	126
5	1881	161.15455554652	127
5	1881	161.15455554652	128
5	1921	164.191445594749	129
5	1921	164.191445594749	130
5	1921	164.191445594749	131
5	1959	167.090358859117	132
5	1959	167.090358859117	133
5	1959	167.090358859117	134
5	1981	168.344501933023	135
5	1981	168.344501933023	136
5	1981	168.344501933023	137
5	2003	169.386274787654	138
5	2003	169.386274787654	139
5	2003	169.386274787654	140
5	2030	172.251431846058	141
5	2030	172.251431846058	142
5	2030	172.251431846058	143
5	2055	173.968781592434	144
5	2055	173.968781592434	145
5	2055	173.968781592434	146
5	2093	177.962378484432	147
5	2093	177.962378484432	148
5	2093	177.962378484432	149
5	2126	179.278543158978	150
5	2126	179.278543158978	151
5	2126	179.278543158978	152
5	2149	181.142469152377	153
5	2149	181.142469152377	154
5	2149	181.142469152377	155
5	2170	182.664049030171	156
5	2170	182.664049030171	157
5	2170	182.664049030171	158
5	2195	183.748000533726	159
5	2195	183.748000533726	160
5	2195	183.748000533726	161
5	2219	186.46520469	162
5	2219	186.46520469	163
5	2219	186.46520469	164
5	2251	190.656815160753	165
5	2251	190.656815160753	166
5	2251	190.656815160753	167
5	2272	192.32307674211	168
5	2272	192.32307674211	169
5	2272	192.32307674211	170
5	2322	195.916208647741	171
5	2322	195.916208647741	172
5	2322	195.916208647741	173
5	2362	199.193027673051	174
5	2362	199.193027673051	175
5	2362	199.193027673051	176
5	2390	200.40993452068	177
5	2390	200.40993452068	178
5	2390	200.40993452068	179
5	2418	202.617611987674	180
5	2418	202.617611987674	181
5	2418	202.617611987674	182
5	2437	204.423126493565	183
5	2437	204.423126493565	184
5	2437	204.423126493565	185
5	2517	213.119488973343	186
5	2517	213.119488973343	187
5	2517	213.119488973343	188
5	2563	216.819475626973	189
5	2563	216.819475626973	190
5	2563	216.819475626973	191
5	2621	221.931536561562	192
5	2621	221.931536561562	193
5	2621	221.931536561562	194
5	2640	223.199064077498	195
5	2640	223.199064077498	196
5	2640	223.199064077498	197
5	2657	224.858804026876	198
5	2657	224.858804026876	199
5	2657	224.858804026876	200
5	2697	228.564105610371	201
5	2697	228.564105610371	202
5	2697	228.564105610371	203
5	2739	233.297655987684	204
5	2739	233.297655987684	205
5	2739	233.297655987684	206
5	2771	236.982447009144	207
5	2771	236.982447009144	208
5	2771	236.982447009144	209
5	2786	238.204746080342	210
5	2786	238.204746080342	211
5	2786	238.204746080342	212
5	2815	239.889174109931	213
5	2815	239.889174109931	214
5	2815	239.889174109931	215
6	52	3.321313937172	0
6	52	3.321313937172	1
6	172	13.257512671006	2
6	172	13.257512671006	3
6	199	14.996028831054	4
6	199	14.996028831054	5
6	220	16.544107659967	6
6	220	16.544107659967	7
6	241	18.016136537426	8
6	241	18.016136537426	9
6	321	25.735463326255	10
6	321	25.735463326255	11
6	395	34.270226150517	12
6	395	34.270226150517	13
6	452	40.079968709637	14
6	452	40.079968709637	15
6	473	42.027189043731	16
6	473	42.027189043731	17
6	550	49.573025873417	18
6	550	49.573025873417	19
6	606	55.281872571727	20
6	606	55.281872571727	21
6	692	62.380550977649	22
6	692	62.380550977649	23
6	862	77.115134035561	24
6	862	77.115134035561	25
6	901	80.612327394697	26
6	901	80.612327394697	27
6	941	84.215936184512	28
6	941	84.215936184512	29
6	984	86.720043546624	30
6	984	86.720043546624	31
6	1220	106.645323534189	32
6	1220	106.645323534189	33
6	1260	109.544653435509	34
6	1260	109.544653435509	35
6	1284	110.880640049226	36
6	1284	110.880640049226	37
6	1343	117.452811447156	38
6	1343	117.452811447156	39
6	1368	119.052938642561	40
6	1368	119.052938642561	41
6	1425	123.85088565086	42
6	1425	123.85088565086	43
6	1469	126.778572658449	44
6	1469	126.778572658449	45
6	1512	129.975564795854	46
6	1512	129.975564795854	47
6	1620	140.79210867808	48
6	1620	140.79210867808	49
6	1729	149.012477930668	50
6	1729	149.012477930668	51
6	1747	151.054301348738	52
6	1747	151.054301348738	53
6	1882	161.155237117355	54
6	1882	161.155237117355	55
6	1928	164.206589633941	56
6	1928	164.206589633941	57
6	1975	168.329512002547	58
6	1975	168.329512002547	59
6	2105	178.03570267888	60
6	2105	178.03570267888	61
6	2148	181.141850956774	62
6	2148	181.141850956774	63
6	2301	194.239945858311	64
6	2301	194.239945858311	65
6	2363	199.202327100567	66
6	2363	199.202327100567	67
6	2387	200.393096293145	68
6	2387	200.393096293145	69
6	2422	202.655262640332	70
6	2422	202.655262640332	71
6	2447	204.448096550632	72
6	2447	204.448096550632	73
6	2465	205.8325884153	74
6	2465	205.8325884153	75
6	2542	215.092204370791	76
6	2542	215.092204370791	77
6	2719	230.161745939117	78
6	2719	230.161745939117	79
6	2747	233.366475312848	80
6	2747	233.366475312848	81
6	2816	239.892310812788	82
6	2816	239.892310812788	83
7	872	77.191146096799	0
7	1199	105.330268362827	1
7	1222	106.655323534189	2
7	1472	126.787838139663	3
7	1710	147.347138969998	4
7	2058	173.978781592434	5
7	2325	195.926208647741	6

