version 2
run General-0-20230921-22:37:28-7196
attr configname General
attr datetime 20230921-22:37:28
attr experiment General
attr inifile omnetpp.ini
attr iterationvars ""
attr iterationvarsf ""
attr measurement ""
attr network Network3
attr processid 7196
attr repetition 0
attr replication #0
attr resultdir results
attr runnumber 0
attr seedset 0
param Network3.node[*].transmissionTime "uniform(1s, 2s)"
param Network3.node[*].delayTime "uniform(0.01s, 0.2s)"
param Network3.node[*].processingTime exponential(0.01s)
param Network3.node[0].lossProbability 0
param Network3.node[1].lossProbability 0.3
param Network3.node[2].lossProbability 0.3
param Network3.node[3].lossProbability "0.3 / 2"
param Network3.node[4].lossProbability "0.3 / 2"
param Network3.node[6].lossProbability "0.3 * 2"
param Network3.node[7].lossProbability "0.3 * 2"
param Network3.node[5].lossProbability "0.3 * 3"

vector 0 Network3.node[0] txVector ETV
vector 1 Network3.node[1] txVector ETV
vector 2 Network3.node[2] txVector ETV
vector 3 Network3.node[4] txVector ETV
vector 4 Network3.node[3] txVector ETV
vector 5 Network3.node[7] txVector ETV
vector 6 Network3.node[5] rxVector ETV
vector 7 Network3.node[6] txVector ETV
0	1	0.114274565438	0
0	1	0.114274565438	1
0	19	1.707119181827	2
0	19	1.707119181827	3
0	41	3.184784293482	4
0	41	3.184784293482	5
0	63	4.6583923335	6
0	63	4.6583923335	7
0	85	6.395310511421	8
0	85	6.395310511421	9
0	95	7.494590862961	10
0	95	7.494590862961	11
0	117	9.245277001829	12
0	117	9.245277001829	13
0	123	10.719974506953	14
0	123	10.719974506953	15
0	141	12.394726829211	16
0	141	12.394726829211	17
0	159	14.272920297765	18
0	159	14.272920297765	19
0	181	15.961581484022	20
0	181	15.961581484022	21
0	196	16.970938185769	22
0	196	16.970938185769	23
0	214	18.799878214094	24
0	214	18.799878214094	25
0	236	20.37213011559	26
0	236	20.37213011559	27
0	257	22.253865475141	28
0	257	22.253865475141	29
0	267	23.541856478973	30
0	267	23.541856478973	31
0	285	24.634230365584	32
0	285	24.634230365584	33
0	303	26.618272601001	34
0	303	26.618272601001	35
0	309	27.655831985481	36
0	309	27.655831985481	37
0	319	29.434883003661	38
0	319	29.434883003661	39
0	333	31.417457960385	40
0	333	31.417457960385	41
0	351	33.18236965833	42
0	351	33.18236965833	43
0	372	35.056942620387	44
0	372	35.056942620387	45
0	394	36.592575417671	46
0	394	36.592575417671	47
0	397	37.846931900436	48
0	397	37.846931900436	49
0	419	38.903350235036	50
0	419	38.903350235036	51
0	441	40.618047167853	52
0	441	40.618047167853	53
0	463	41.618102518216	54
0	463	41.618102518216	55
0	481	43.575553374205	56
0	481	43.575553374205	57
0	487	45.322632845098	58
0	487	45.322632845098	59
0	512	46.497541717326	60
0	512	46.497541717326	61
0	530	48.049734188782	62
0	530	48.049734188782	63
0	555	49.834887099059	64
0	555	49.834887099059	65
0	577	51.321046657467	66
0	577	51.321046657467	67
0	599	52.325094763029	68
0	599	52.325094763029	69
0	620	54.113967537021	70
0	620	54.113967537021	71
0	645	55.884548285816	72
0	645	55.884548285816	73
0	666	57.361025489707	74
0	666	57.361025489707	75
0	676	59.058022731523	76
0	676	59.058022731523	77
0	679	60.645622368277	78
0	679	60.645622368277	79
0	693	62.537672030115	80
0	693	62.537672030115	81
0	715	64.420381317222	82
0	715	64.420381317222	83
0	732	65.74606608374	84
0	732	65.74606608374	85
0	757	67.47023371987	86
0	757	67.47023371987	87
0	779	68.973661146434	88
0	779	68.973661146434	89
0	797	70.922958626021	90
0	797	70.922958626021	91
0	819	72.454807807999	92
0	819	72.454807807999	93
0	825	73.97717834062	94
0	825	73.97717834062	95
0	828	75.521769217291	96
0	828	75.521769217291	97
0	853	76.742930129246	98
0	853	76.742930129246	99
0	875	78.111032531905	100
0	875	78.111032531905	101
0	897	79.9335919787	102
0	897	79.9335919787	103
0	919	81.630733589019	104
0	919	81.630733589019	105
0	922	83.261859134381	106
0	922	83.261859134381	107
0	943	84.640916030231	108
0	943	84.640916030231	109
0	968	85.842433742789	110
0	968	85.842433742789	111
0	979	86.9737230731	112
0	979	86.9737230731	113
0	982	88.953296325711	114
0	982	88.953296325711	115
0	996	90.54552674371	116
0	996	90.54552674371	117
0	1018	91.793940204039	118
0	1018	91.793940204039	119
0	1040	93.24007571147	120
0	1040	93.24007571147	121
0	1043	94.78375376559	122
0	1043	94.78375376559	123
0	1049	96.640056743595	124
0	1049	96.640056743595	125
0	1071	98.100276451401	126
0	1071	98.100276451401	127
0	1096	99.199692844256	128
0	1096	99.199692844256	129
0	1118	100.709500036045	130
0	1118	100.709500036045	131
0	1143	102.596460816759	132
0	1143	102.596460816759	133
0	1161	103.702890229254	134
0	1161	103.702890229254	135
0	1183	104.848760383745	136
0	1183	104.848760383745	137
0	1201	106.03631231825	138
0	1201	106.03631231825	139
0	1223	107.700178384624	140
0	1223	107.700178384624	141
0	1245	109.131963311072	142
0	1245	109.131963311072	143
0	1259	110.804004368681	144
0	1259	110.804004368681	145
0	1262	112.569274957368	146
0	1262	112.569274957368	147
0	1272	113.811176662642	148
0	1272	113.811176662642	149
0	1297	114.928497145727	150
0	1297	114.928497145727	151
0	1300	115.937428410241	152
0	1300	115.937428410241	153
0	1314	117.435205314384	154
0	1314	117.435205314384	155
0	1332	118.551039317698	156
0	1332	118.551039317698	157
0	1357	120.222422801266	158
0	1357	120.222422801266	159
0	1378	122.055738611455	160
0	1378	122.055738611455	161
0	1400	123.15903676658	162
0	1400	123.15903676658	163
0	1414	124.532252723426	164
0	1414	124.532252723426	165
0	1436	125.598402183811	166
0	1436	125.598402183811	167
0	1446	126.947842479293	168
0	1446	126.947842479293	169
0	1468	128.84353377305	170
0	1468	128.84353377305	171
0	1474	130.339504069956	172
0	1474	130.339504069956	173
0	1488	131.863883875618	174
0	1488	131.863883875618	175
0	1491	133.476750632124	176
0	1491	133.476750632124	177
0	1513	135.163112676544	178
0	1513	135.163112676544	179
0	1516	136.589058627682	180
0	1516	136.589058627682	181
0	1538	137.83674364591	182
0	1538	137.83674364591	183
0	1559	139.628623211365	184
0	1559	139.628623211365	185
0	1584	141.066437464282	186
0	1584	141.066437464282	187
0	1602	142.662870529648	188
0	1602	142.662870529648	189
0	1627	144.302575630676	190
0	1627	144.302575630676	191
0	1630	145.535749386372	192
0	1630	145.535749386372	193
0	1648	146.748183746431	194
0	1648	146.748183746431	195
0	1670	147.956437002476	196
0	1670	147.956437002476	197
0	1691	149.43582155819	198
0	1691	149.43582155819	199
0	1712	151.332301552249	200
0	1712	151.332301552249	201
0	1737	152.50930732822	202
0	1737	152.50930732822	203
0	1759	154.147163080824	204
0	1759	154.147163080824	205
0	1784	155.193176656104	206
0	1784	155.193176656104	207
0	1806	156.641545833395	208
0	1806	156.641545833395	209
0	1828	157.700929017811	210
0	1828	157.700929017811	211
0	1846	159.564399663898	212
0	1846	159.564399663898	213
0	1868	161.465561838428	214
0	1868	161.465561838428	215
0	1886	162.941150953833	216
0	1886	162.941150953833	217
0	1907	164.646860994238	218
0	1907	164.646860994238	219
0	1932	166.347789062725	220
0	1932	166.347789062725	221
0	1954	167.830373301243	222
0	1954	167.830373301243	223
0	1976	169.120621343914	224
0	1976	169.120621343914	225
0	1994	170.334456692056	226
0	1994	170.334456692056	227
0	2008	172.272868716696	228
0	2008	172.272868716696	229
0	2015	173.316844149099	230
0	2015	173.316844149099	231
0	2018	174.561220222458	232
0	2018	174.561220222458	233
0	2032	176.514895923508	234
0	2032	176.514895923508	235
0	2057	178.004354556163	236
0	2057	178.004354556163	237
0	2063	179.133051170108	238
0	2063	179.133051170108	239
0	2085	180.20580524842	240
0	2085	180.20580524842	241
0	2103	181.531922939538	242
0	2103	181.531922939538	243
0	2124	183.443579696191	244
0	2124	183.443579696191	245
0	2142	184.44888974617	246
0	2142	184.44888974617	247
0	2145	186.390557542283	248
0	2145	186.390557542283	249
0	2151	187.576005514085	250
0	2151	187.576005514085	251
0	2165	188.973993672829	252
0	2165	188.973993672829	253
0	2187	190.217617193542	254
0	2187	190.217617193542	255
0	2193	191.317619872585	256
0	2193	191.317619872585	257
0	2218	193.02189116583	258
0	2218	193.02189116583	259
0	2236	194.460147113146	260
0	2236	194.460147113146	261
0	2250	196.366378535589	262
0	2250	196.366378535589	263
0	2264	198.364372539174	264
0	2264	198.364372539174	265
0	2274	200.320495698441	266
0	2274	200.320495698441	267
0	2292	202.049054432035	268
0	2292	202.049054432035	269
0	2314	203.325704162548	270
0	2314	203.325704162548	271
0	2325	205.152509431428	272
0	2325	205.152509431428	273
0	2332	206.748093073097	274
0	2332	206.748093073097	275
0	2357	208.33867845063	276
0	2357	208.33867845063	277
0	2382	210.075663692624	278
0	2382	210.075663692624	279
0	2400	211.98711456389	280
0	2400	211.98711456389	281
0	2425	213.295642518511	282
0	2425	213.295642518511	283
0	2428	214.305017701423	284
0	2428	214.305017701423	285
0	2450	215.93217841124	286
0	2450	215.93217841124	287
0	2456	217.176748019949	288
0	2456	217.176748019949	289
0	2474	218.380368948056	290
0	2474	218.380368948056	291
0	2496	219.782057135905	292
0	2496	219.782057135905	293
0	2521	221.753820211933	294
0	2521	221.753820211933	295
0	2546	222.94787829982	296
0	2546	222.94787829982	297
0	2556	224.449983883722	298
0	2556	224.449983883722	299
0	2575	226.250782483796	300
0	2575	226.250782483796	301
0	2589	227.623888373914	302
0	2589	227.623888373914	303
0	2610	229.318616479243	304
0	2610	229.318616479243	305
0	2631	231.256480854777	306
0	2631	231.256480854777	307
0	2653	232.410063365083	308
0	2653	232.410063365083	309
0	2671	234.062577713122	310
0	2671	234.062577713122	311
0	2693	235.294894210835	312
0	2693	235.294894210835	313
0	2714	236.766100979949	314
0	2714	236.766100979949	315
0	2739	238.137387928626	316
0	2739	238.137387928626	317
0	2757	239.70709397069	318
0	2757	239.70709397069	319
1	4	0.142870607559	0
1	4	0.142870607559	1
1	4	0.142870607559	2
1	25	1.73384129383	3
1	25	1.73384129383	4
1	25	1.73384129383	5
1	45	3.210924314231	6
1	45	3.210924314231	7
1	45	3.210924314231	8
1	67	4.670832818407	9
1	67	4.670832818407	10
1	67	4.670832818407	11
1	99	7.513951478559	12
1	99	7.513951478559	13
1	99	7.513951478559	14
1	126	10.733790065387	15
1	126	10.733790065387	16
1	126	10.733790065387	17
1	145	12.411852665144	18
1	145	12.411852665144	19
1	145	12.411852665144	20
1	162	14.304162669735	21
1	162	14.304162669735	22
1	162	14.304162669735	23
1	184	15.990054760532	24
1	184	15.990054760532	25
1	184	15.990054760532	26
1	199	16.980985251174	27
1	199	16.980985251174	28
1	199	16.980985251174	29
1	217	18.812402414023	30
1	217	18.812402414023	31
1	217	18.812402414023	32
1	239	20.393923944926	33
1	239	20.393923944926	34
1	239	20.393923944926	35
1	270	23.556226759111	36
1	270	23.556226759111	37
1	270	23.556226759111	38
1	288	24.647246024716	39
1	288	24.647246024716	40
1	288	24.647246024716	41
1	315	27.685851850436	42
1	315	27.685851850436	43
1	315	27.685851850436	44
1	322	29.449555729325	45
1	322	29.449555729325	46
1	322	29.449555729325	47
1	339	31.456304077906	48
1	339	31.456304077906	49
1	339	31.456304077906	50
1	358	33.221215101214	51
1	358	33.221215101214	52
1	358	33.221215101214	53
1	375	35.075856406156	54
1	375	35.075856406156	55
1	375	35.075856406156	56
1	400	37.863623037673	57
1	400	37.863623037673	58
1	400	37.863623037673	59
1	422	38.91968953523	60
1	422	38.91968953523	61
1	422	38.91968953523	62
1	444	40.631784800791	63
1	444	40.631784800791	64
1	444	40.631784800791	65
1	466	41.634484404272	66
1	466	41.634484404272	67
1	466	41.634484404272	68
1	491	45.34482283855	69
1	491	45.34482283855	70
1	491	45.34482283855	71
1	515	46.516323868113	72
1	515	46.516323868113	73
1	515	46.516323868113	74
1	533	48.063043287594	75
1	533	48.063043287594	76
1	533	48.063043287594	77
1	559	49.857215903689	78
1	559	49.857215903689	79
1	559	49.857215903689	80
1	580	51.334186636448	81
1	580	51.334186636448	82
1	580	51.334186636448	83
1	603	52.340394378822	84
1	603	52.340394378822	85
1	603	52.340394378822	86
1	624	54.125556868818	87
1	624	54.125556868818	88
1	624	54.125556868818	89
1	648	55.901241314536	90
1	648	55.901241314536	91
1	648	55.901241314536	92
1	682	60.657054898491	93
1	682	60.657054898491	94
1	682	60.657054898491	95
1	697	62.554374348881	96
1	697	62.554374348881	97
1	697	62.554374348881	98
1	718	64.43197143739	99
1	718	64.43197143739	100
1	718	64.43197143739	101
1	735	65.761158108609	102
1	735	65.761158108609	103
1	735	65.761158108609	104
1	763	67.510964472098	105
1	763	67.510964472098	106
1	763	67.510964472098	107
1	789	69.035743741974	108
1	789	69.035743741974	109
1	789	69.035743741974	110
1	815	70.992397880565	111
1	815	70.992397880565	112
1	815	70.992397880565	113
1	832	75.534688678008	114
1	832	75.534688678008	115
1	832	75.534688678008	116
1	871	76.843028880268	117
1	871	76.843028880268	118
1	871	76.843028880268	119
1	879	78.134435291525	120
1	879	78.134435291525	121
1	879	78.134435291525	122
1	900	79.966329050367	123
1	900	79.966329050367	124
1	900	79.966329050367	125
1	925	83.276547915937	126
1	925	83.276547915937	127
1	925	83.276547915937	128
1	947	84.658868252244	129
1	947	84.658868252244	130
1	947	84.658868252244	131
1	971	85.861700128792	132
1	971	85.861700128792	133
1	971	85.861700128792	134
1	992	88.996924921603	135
1	992	88.996924921603	136
1	992	88.996924921603	137
1	1000	90.562576236924	138
1	1000	90.562576236924	139
1	1000	90.562576236924	140
1	1021	91.805045362805	141
1	1021	91.805045362805	142
1	1021	91.805045362805	143
1	1052	96.650305075672	144
1	1052	96.650305075672	145
1	1052	96.650305075672	146
1	1074	98.113698198317	147
1	1074	98.113698198317	148
1	1074	98.113698198317	149
1	1099	99.213756972923	150
1	1099	99.213756972923	151
1	1099	99.213756972923	152
1	1122	100.729145033663	153
1	1122	100.729145033663	154
1	1122	100.729145033663	155
1	1153	102.663345224209	156
1	1153	102.663345224209	157
1	1153	102.663345224209	158
1	1164	103.716979404546	159
1	1164	103.716979404546	160
1	1164	103.716979404546	161
1	1187	104.871320339733	162
1	1187	104.871320339733	163
1	1187	104.871320339733	164
1	1205	106.049781607082	165
1	1205	106.049781607082	166
1	1205	106.049781607082	167
1	1226	107.719162408288	168
1	1226	107.719162408288	169
1	1226	107.719162408288	170
1	1248	109.145065272305	171
1	1248	109.145065272305	172
1	1248	109.145065272305	173
1	1275	113.822308395966	174
1	1275	113.822308395966	175
1	1275	113.822308395966	176
1	1304	115.956129209345	177
1	1304	115.956129209345	178
1	1304	115.956129209345	179
1	1317	117.451312856133	180
1	1317	117.451312856133	181
1	1317	117.451312856133	182
1	1342	118.615759560244	183
1	1342	118.615759560244	184
1	1342	118.615759560244	185
1	1364	120.247375112447	186
1	1364	120.247375112447	187
1	1364	120.247375112447	188
1	1384	122.085925249054	189
1	1384	122.085925249054	190
1	1384	122.085925249054	191
1	1404	123.171558163344	192
1	1404	123.171558163344	193
1	1404	123.171558163344	194
1	1417	124.542931282206	195
1	1417	124.542931282206	196
1	1417	124.542931282206	197
1	1464	127.053564768333	198
1	1464	127.053564768333	199
1	1464	127.053564768333	200
1	1477	130.350752678534	201
1	1477	130.350752678534	202
1	1477	130.350752678534	203
1	1501	133.524387440059	204
1	1501	133.524387440059	205
1	1501	133.524387440059	206
1	1519	136.602889308353	207
1	1519	136.602889308353	208
1	1519	136.602889308353	209
1	1541	137.858004173887	210
1	1541	137.858004173887	211
1	1541	137.858004173887	212
1	1573	139.677991229352	213
1	1573	139.677991229352	214
1	1573	139.677991229352	215
1	1587	141.07768771977	216
1	1587	141.07768771977	217
1	1587	141.07768771977	218
1	1606	142.678118134089	219
1	1606	142.678118134089	220
1	1606	142.678118134089	221
1	1633	145.547770955735	222
1	1633	145.547770955735	223
1	1633	145.547770955735	224
1	1651	146.785124323281	225
1	1651	146.785124323281	226
1	1651	146.785124323281	227
1	1680	148.003291659458	228
1	1680	148.003291659458	229
1	1680	148.003291659458	230
1	1695	149.454380050404	231
1	1695	149.454380050404	232
1	1695	149.454380050404	233
1	1716	151.348908703183	234
1	1716	151.348908703183	235
1	1716	151.348908703183	236
1	1741	152.533609521703	237
1	1741	152.533609521703	238
1	1741	152.533609521703	239
1	1762	154.159267249856	240
1	1762	154.159267249856	241
1	1762	154.159267249856	242
1	1787	155.211566388933	243
1	1787	155.211566388933	244
1	1787	155.211566388933	245
1	1809	156.672422736026	246
1	1809	156.672422736026	247
1	1809	156.672422736026	248
1	1832	157.719287793486	249
1	1832	157.719287793486	250
1	1832	157.719287793486	251
1	1864	159.654577115228	252
1	1864	159.654577115228	253
1	1864	159.654577115228	254
1	1871	161.492711069469	255
1	1871	161.492711069469	256
1	1871	161.492711069469	257
1	1890	162.956180078	258
1	1890	162.956180078	259
1	1890	162.956180078	260
1	1917	164.706054880882	261
1	1917	164.706054880882	262
1	1917	164.706054880882	263
1	1935	166.370876014322	264
1	1935	166.370876014322	265
1	1935	166.370876014322	266
1	1957	167.843999851373	267
1	1957	167.843999851373	268
1	1957	167.843999851373	269
1	1983	169.14537152706	270
1	1983	169.14537152706	271
1	1983	169.14537152706	272
1	1997	170.347052777853	273
1	1997	170.347052777853	274
1	1997	170.347052777853	275
1	2011	172.304031555176	276
1	2011	172.304031555176	277
1	2011	172.304031555176	278
1	2028	174.608472835533	279
1	2028	174.608472835533	280
1	2028	174.608472835533	281
1	2035	176.527688802528	282
1	2035	176.527688802528	283
1	2035	176.527688802528	284
1	2067	179.153392882496	285
1	2067	179.153392882496	286
1	2067	179.153392882496	287
1	2088	180.219374704783	288
1	2088	180.219374704783	289
1	2088	180.219374704783	290
1	2106	181.547263172945	291
1	2106	181.547263172945	292
1	2106	181.547263172945	293
1	2127	183.453693897056	294
1	2127	183.453693897056	295
1	2127	183.453693897056	296
1	2161	187.658185715152	297
1	2161	187.658185715152	298
1	2161	187.658185715152	299
1	2176	189.045735643559	300
1	2176	189.045735643559	301
1	2176	189.045735643559	302
1	2204	191.35875389939	303
1	2204	191.35875389939	304
1	2204	191.35875389939	305
1	2221	193.034157613014	306
1	2221	193.034157613014	307
1	2221	193.034157613014	308
1	2246	194.545715568615	309
1	2246	194.545715568615	310
1	2246	194.545715568615	311
1	2256	196.420515086631	312
1	2256	196.420515086631	313
1	2256	196.420515086631	314
1	2277	200.334495268845	315
1	2277	200.334495268845	316
1	2277	200.334495268845	317
1	2302	202.094050391822	318
1	2302	202.094050391822	319
1	2302	202.094050391822	320
1	2317	203.336802209018	321
1	2317	203.336802209018	322
1	2317	203.336802209018	323
1	2328	205.166891708331	324
1	2328	205.166891708331	325
1	2328	205.166891708331	326
1	2335	206.763811780747	327
1	2335	206.763811780747	328
1	2335	206.763811780747	329
1	2372	208.420855600403	330
1	2372	208.420855600403	331
1	2372	208.420855600403	332
1	2385	210.088897989378	333
1	2385	210.088897989378	334
1	2385	210.088897989378	335
1	2404	212.025619585988	336
1	2404	212.025619585988	337
1	2404	212.025619585988	338
1	2431	214.321998355574	339
1	2431	214.321998355574	340
1	2431	214.321998355574	341
1	2459	217.195102309924	342
1	2459	217.195102309924	343
1	2459	217.195102309924	344
1	2478	218.391265948157	345
1	2478	218.391265948157	346
1	2478	218.391265948157	347
1	2506	219.825788186723	348
1	2506	219.825788186723	349
1	2506	219.825788186723	350
1	2528	221.813278088875	351
1	2528	221.813278088875	352
1	2528	221.813278088875	353
1	2559	224.467943356412	354
1	2559	224.467943356412	355
1	2559	224.467943356412	356
1	2585	226.293946772548	357
1	2585	226.293946772548	358
1	2585	226.293946772548	359
1	2592	227.634067658258	360
1	2592	227.634067658258	361
1	2592	227.634067658258	362
1	2613	229.338322373241	363
1	2613	229.338322373241	364
1	2613	229.338322373241	365
1	2634	231.280746738091	366
1	2634	231.280746738091	367
1	2634	231.280746738091	368
1	2663	232.459955168171	369
1	2663	232.459955168171	370
1	2663	232.459955168171	371
1	2675	234.080041434243	372
1	2675	234.080041434243	373
1	2675	234.080041434243	374
1	2699	235.315629483819	375
1	2699	235.315629483819	376
1	2699	235.315629483819	377
1	2732	236.854448155175	378
1	2732	236.854448155175	379
1	2732	236.854448155175	380
1	2743	238.160365308057	381
1	2743	238.160365308057	382
1	2743	238.160365308057	383
2	5	0.143790018797	0
2	5	0.143790018797	1
2	22	1.723658007499	2
2	22	1.723658007499	3
2	44	3.202133937694	4
2	44	3.202133937694	5
2	66	4.669845113773	6
2	66	4.669845113773	7
2	88	6.416299636097	8
2	88	6.416299636097	9
2	98	7.508521988534	10
2	98	7.508521988534	11
2	120	9.25700827639	12
2	120	9.25700827639	13
2	138	10.794860107964	14
2	138	10.794860107964	15
2	144	12.405300098475	16
2	144	12.405300098475	17
2	163	14.307959415596	18
2	163	14.307959415596	19
2	208	17.009811509318	20
2	208	17.009811509318	21
2	225	18.840401030663	22
2	225	18.840401030663	23
2	240	20.395049208278	24
2	240	20.395049208278	25
2	260	22.273489225699	26
2	260	22.273489225699	27
2	271	23.559881998831	28
2	271	23.559881998831	29
2	289	24.651931134179	30
2	289	24.651931134179	31
2	306	26.63783226524	32
2	306	26.63783226524	33
2	312	27.671132014262	34
2	312	27.671132014262	35
2	323	29.450331574942	36
2	323	29.450331574942	37
2	336	31.441320873905	38
2	336	31.441320873905	39
2	354	33.201741045507	40
2	354	33.201741045507	41
2	376	35.080040474101	42
2	376	35.080040474101	43
2	405	37.878218601381	44
2	405	37.878218601381	45
2	435	38.968215100813	46
2	435	38.968215100813	47
2	460	40.702887240374	48
2	460	40.702887240374	49
2	475	41.662381443782	50
2	475	41.662381443782	51
2	484	43.592838612632	52
2	484	43.592838612632	53
2	490	45.338853214289	54
2	490	45.338853214289	55
2	527	46.566304649105	56
2	527	46.566304649105	57
2	534	48.068562994232	58
2	534	48.068562994232	59
2	558	49.851781444437	60
2	558	49.851781444437	61
2	581	51.33633132975	62
2	581	51.33633132975	63
2	602	52.339546256423	64
2	602	52.339546256423	65
2	623	54.12479615975	66
2	623	54.12479615975	67
2	661	55.930675701833	68
2	661	55.930675701833	69
2	669	57.389816674049	70
2	669	57.389816674049	71
2	690	60.709728894316	72
2	690	60.709728894316	73
2	696	62.553026073626	74
2	696	62.553026073626	75
2	719	64.432123304388	76
2	719	64.432123304388	77
2	752	65.805467157264	78
2	752	65.805467157264	79
2	760	67.48839390551	80
2	760	67.48839390551	81
2	782	68.98917818256	82
2	782	68.98917818256	83
2	800	70.938087895939	84
2	800	70.938087895939	85
2	822	72.470407891732	86
2	822	72.470407891732	87
2	831	75.533173974461	88
2	831	75.533173974461	89
2	856	76.768219517953	90
2	856	76.768219517953	91
2	878	78.126959106084	92
2	878	78.126959106084	93
2	912	80.000798134832	94
2	912	80.000798134832	95
2	926	83.285673725179	96
2	926	83.285673725179	97
2	946	84.658248283618	98
2	946	84.658248283618	99
2	985	88.965723780085	100
2	985	88.965723780085	101
2	999	90.559242901258	102
2	999	90.559242901258	103
2	1022	91.808224614327	104
2	1022	91.808224614327	105
2	1046	94.806144130664	106
2	1046	94.806144130664	107
2	1053	96.658222670483	108
2	1053	96.658222670483	109
2	1075	98.11802161928	110
2	1075	98.11802161928	111
2	1111	99.239610520976	112
2	1111	99.239610520976	113
2	1121	100.720932523083	114
2	1121	100.720932523083	115
2	1146	102.611389604443	116
2	1146	102.611389604443	117
2	1165	103.722712611098	118
2	1165	103.722712611098	119
2	1186	104.866162905659	120
2	1186	104.866162905659	121
2	1204	106.048548308833	122
2	1204	106.048548308833	123
2	1242	107.780460537751	124
2	1242	107.780460537751	125
2	1249	109.15026591754	126
2	1249	109.15026591754	127
2	1265	112.582294507403	128
2	1265	112.582294507403	129
2	1276	113.830085200661	130
2	1276	113.830085200661	131
2	1303	115.950193287082	132
2	1303	115.950193287082	133
2	1329	117.484306722081	134
2	1329	117.484306722081	135
2	1335	118.580471323261	136
2	1335	118.580471323261	137
2	1360	120.235723868207	138
2	1360	120.235723868207	139
2	1381	122.066034858978	140
2	1381	122.066034858978	141
2	1403	123.16987636698	142
2	1403	123.16987636698	143
2	1426	124.579548230007	144
2	1426	124.579548230007	145
2	1439	125.613881308188	146
2	1439	125.613881308188	147
2	1449	126.978329859229	148
2	1449	126.978329859229	149
2	1471	128.860750360527	150
2	1471	128.860750360527	151
2	1478	130.351245762167	152
2	1478	130.351245762167	153
2	1494	133.49613071328	154
2	1494	133.49613071328	155
2	1524	136.618632811604	156
2	1524	136.618632811604	157
2	1553	137.882600468999	158
2	1553	137.882600468999	159
2	1562	139.644190238006	160
2	1562	139.644190238006	161
2	1595	141.113686208023	162
2	1595	141.113686208023	163
2	1605	142.677609145438	164
2	1605	142.677609145438	165
2	1634	145.550908203597	166
2	1634	145.550908203597	167
2	1663	146.82589656888	168
2	1663	146.82589656888	169
2	1673	147.967271482652	170
2	1673	147.967271482652	171
2	1694	149.45130024513	172
2	1694	149.45130024513	173
2	1715	151.343813456513	174
2	1715	151.343813456513	175
2	1740	152.52375631291	176
2	1740	152.52375631291	177
2	1778	154.20506988188	178
2	1778	154.20506988188	179
2	1831	157.715516371224	180
2	1831	157.715516371224	181
2	1849	159.58393019816	182
2	1849	159.58393019816	183
2	1883	161.521540231327	184
2	1883	161.521540231327	185
2	1889	162.954873771664	186
2	1889	162.954873771664	187
2	1910	164.661099917641	188
2	1910	164.661099917641	189
2	1947	166.41658357628	190
2	1947	166.41658357628	191
2	1958	167.849315301145	192
2	1958	167.849315301145	193
2	1979	169.130743802302	194
2	1979	169.130743802302	195
2	1998	170.355762092357	196
2	1998	170.355762092357	197
2	2021	174.578981454234	198
2	2021	174.578981454234	199
2	2036	176.53377876453	200
2	2036	176.53377876453	201
2	2060	178.020730873356	202
2	2060	178.020730873356	203
2	2066	179.14594416339	204
2	2066	179.14594416339	205
2	2100	180.24805001953	206
2	2100	180.24805001953	207
2	2118	181.581450869197	208
2	2118	181.581450869197	209
2	2128	183.460738160664	210
2	2128	183.460738160664	211
2	2148	186.412318139555	212
2	2148	186.412318139555	213
2	2154	187.622932251297	214
2	2154	187.622932251297	215
2	2168	188.995114161693	216
2	2168	188.995114161693	217
2	2190	190.241846136157	218
2	2190	190.241846136157	219
2	2196	191.328873461212	220
2	2196	191.328873461212	221
2	2222	193.037400485576	222
2	2222	193.037400485576	223
2	2239	194.473816861925	224
2	2239	194.473816861925	225
2	2253	196.385624864787	226
2	2253	196.385624864787	227
2	2267	198.396794285745	228
2	2267	198.396794285745	229
2	2281	200.346186406914	230
2	2281	200.346186406914	231
2	2295	202.061545820987	232
2	2295	202.061545820987	233
2	2339	206.774122128472	234
2	2339	206.774122128472	235
2	2360	208.361417606806	236
2	2360	208.361417606806	237
2	2386	210.090276487253	238
2	2386	210.090276487253	239
2	2403	212.019030820381	240
2	2403	212.019030820381	241
2	2447	214.373754836707	242
2	2447	214.373754836707	243
2	2453	215.948094190877	244
2	2453	215.948094190877	245
2	2471	217.228296546371	246
2	2471	217.228296546371	247
2	2477	218.391016348003	248
2	2477	218.391016348003	249
2	2499	219.792649017883	250
2	2499	219.792649017883	251
2	2524	221.770752111849	252
2	2524	221.770752111849	253
2	2549	222.959837593259	254
2	2549	222.959837593259	255
2	2578	226.264806215909	256
2	2578	226.264806215909	257
2	2600	227.665623985241	258
2	2600	227.665623985241	259
2	2626	229.388344690357	260
2	2626	229.388344690357	261
2	2635	231.282217623285	262
2	2635	231.282217623285	263
2	2656	232.420519314509	264
2	2656	232.420519314509	265
2	2674	234.07947989882	266
2	2674	234.07947989882	267
2	2696	235.304901383014	268
2	2696	235.304901383014	269
2	2717	236.7773508496	270
2	2717	236.7773508496	271
2	2742	238.153497144023	272
2	2742	238.153497144023	273
3	11	0.158381092426	0
3	11	0.158381092426	1
3	11	0.158381092426	2
3	33	1.759640548357	3
3	33	1.759640548357	4
3	33	1.759640548357	5
3	48	3.213392681788	6
3	48	3.213392681788	7
3	48	3.213392681788	8
3	73	4.689458923164	9
3	73	4.689458923164	10
3	73	4.689458923164	11
3	91	6.428173896757	12
3	91	6.428173896757	13
3	91	6.428173896757	14
3	113	7.568496447021	15
3	113	7.568496447021	16
3	113	7.568496447021	17
3	134	10.773661964306	18
3	134	10.773661964306	19
3	134	10.773661964306	20
3	152	12.428742551197	21
3	152	12.428742551197	22
3	152	12.428742551197	23
3	170	14.325954565006	24
3	170	14.325954565006	25
3	170	14.325954565006	26
3	192	16.018467585247	27
3	192	16.018467585247	28
3	192	16.018467585247	29
3	203	16.994132467783	30
3	203	16.994132467783	31
3	203	16.994132467783	32
3	221	18.828366207966	33
3	221	18.828366207966	34
3	221	18.828366207966	35
3	247	20.411542622639	36
3	247	20.411542622639	37
3	247	20.411542622639	38
3	263	22.304563701749	39
3	263	22.304563701749	40
3	263	22.304563701749	41
3	277	23.575528103842	42
3	277	23.575528103842	43
3	277	23.575528103842	44
3	293	24.658302151152	45
3	293	24.658302151152	46
3	293	24.658302151152	47
3	340	31.458682184905	48
3	340	31.458682184905	49
3	340	31.458682184905	50
3	357	33.212064613553	51
3	357	33.212064613553	52
3	357	33.212064613553	53
3	383	35.09393620669	54
3	383	35.09393620669	55
3	383	35.09393620669	56
3	406	37.878367200576	57
3	406	37.878367200576	58
3	406	37.878367200576	59
3	430	38.953378716938	60
3	430	38.953378716938	61
3	430	38.953378716938	62
3	452	40.6634424376	63
3	452	40.6634424376	64
3	452	40.6634424376	65
3	470	41.646153150684	66
3	470	41.646153150684	67
3	470	41.646153150684	68
3	494	45.350877801926	69
3	494	45.350877801926	70
3	494	45.350877801926	71
3	520	46.52977906395	72
3	520	46.52977906395	73
3	520	46.52977906395	74
3	545	48.094053111024	75
3	545	48.094053111024	76
3	545	48.094053111024	77
3	570	49.880682461418	78
3	570	49.880682461418	79
3	570	49.880682461418	80
3	592	51.361452970245	81
3	592	51.361452970245	82
3	592	51.361452970245	83
3	606	52.350392051341	84
3	606	52.350392051341	85
3	606	52.350392051341	86
3	634	54.152186526625	87
3	634	54.152186526625	88
3	634	54.152186526625	89
3	653	55.918677146454	90
3	653	55.918677146454	91
3	653	55.918677146454	92
3	672	57.402819924852	93
3	672	57.402819924852	94
3	672	57.402819924852	95
3	686	60.692979384579	96
3	686	60.692979384579	97
3	686	60.692979384579	98
3	704	62.573398524567	99
3	704	62.573398524567	100
3	704	62.573398524567	101
3	739	65.782870745558	102
3	739	65.782870745558	103
3	739	65.782870745558	104
3	767	67.529538823124	105
3	767	67.529538823124	106
3	767	67.529538823124	107
3	785	69.012186556835	108
3	785	69.012186556835	109
3	785	69.012186556835	110
3	803	70.959490684708	111
3	803	70.959490684708	112
3	803	70.959490684708	113
3	847	75.576570721567	114
3	847	75.576570721567	115
3	847	75.576570721567	116
3	859	76.778950034525	117
3	859	76.778950034525	118
3	859	76.778950034525	119
3	886	78.154599980006	120
3	886	78.154599980006	121
3	886	78.154599980006	122
3	905	79.979093777532	123
3	905	79.979093777532	124
3	905	79.979093777532	125
3	933	83.302421488234	126
3	933	83.302421488234	127
3	933	83.302421488234	128
3	953	84.682141868687	129
3	953	84.682141868687	130
3	953	84.682141868687	131
3	975	85.8942748967	132
3	975	85.8942748967	133
3	975	85.8942748967	134
3	988	88.983755147804	135
3	988	88.983755147804	136
3	988	88.983755147804	137
3	1007	90.591767829959	138
3	1007	90.591767829959	139
3	1007	90.591767829959	140
3	1028	91.819936446911	141
3	1028	91.819936446911	142
3	1028	91.819936446911	143
3	1057	96.661242629548	144
3	1057	96.661242629548	145
3	1057	96.661242629548	146
3	1085	98.153430281712	147
3	1085	98.153430281712	148
3	1085	98.153430281712	149
3	1103	99.224779990733	150
3	1103	99.224779990733	151
3	1103	99.224779990733	152
3	1125	100.738799354238	153
3	1125	100.738799354238	154
3	1125	100.738799354238	155
3	1149	102.629662863679	156
3	1149	102.629662863679	157
3	1149	102.629662863679	158
3	1172	103.738901926967	159
3	1172	103.738901926967	160
3	1172	103.738901926967	161
3	1197	104.938122006846	162
3	1197	104.938122006846	163
3	1197	104.938122006846	164
3	1212	106.067894112996	165
3	1212	106.067894112996	166
3	1212	106.067894112996	167
3	1238	107.764515877584	168
3	1238	107.764515877584	169
3	1238	107.764515877584	170
3	1255	109.169528348027	171
3	1255	109.169528348027	172
3	1255	109.169528348027	173
3	1268	112.607126241483	174
3	1268	112.607126241483	175
3	1268	112.607126241483	176
3	1293	113.860573635672	177
3	1293	113.860573635672	178
3	1293	113.860573635672	179
3	1310	116.002145973283	180
3	1310	116.002145973283	181
3	1310	116.002145973283	182
3	1322	117.462366000325	183
3	1322	117.462366000325	184
3	1322	117.462366000325	185
3	1338	118.600665275142	186
3	1338	118.600665275142	187
3	1338	118.600665275142	188
3	1363	120.246027948145	189
3	1363	120.246027948145	190
3	1363	120.246027948145	191
3	1388	122.103715859555	192
3	1388	122.103715859555	193
3	1388	122.103715859555	194
3	1410	123.181645442307	195
3	1410	123.181645442307	196
3	1410	123.181645442307	197
3	1421	124.554700089267	198
3	1421	124.554700089267	199
3	1421	124.554700089267	200
3	1442	125.650083323957	201
3	1442	125.650083323957	202
3	1442	125.650083323957	203
3	1452	127.000067036508	204
3	1452	127.000067036508	205
3	1452	127.000067036508	206
3	1497	133.513216074034	207
3	1497	133.513216074034	208
3	1497	133.513216074034	209
3	1523	136.617422153061	210
3	1523	136.617422153061	211
3	1523	136.617422153061	212
3	1546	137.870443470586	213
3	1546	137.870443470586	214
3	1546	137.870443470586	215
3	1565	139.655012863661	216
3	1565	139.655012863661	217
3	1565	139.655012863661	218
3	1591	141.087714526353	219
3	1591	141.087714526353	220
3	1591	141.087714526353	221
3	1613	142.69667415821	222
3	1613	142.69667415821	223
3	1613	142.69667415821	224
3	1641	145.570725522374	225
3	1641	145.570725522374	226
3	1641	145.570725522374	227
3	1656	146.814667410998	228
3	1656	146.814667410998	229
3	1656	146.814667410998	230
3	1676	147.980737152743	231
3	1676	147.980737152743	232
3	1676	147.980737152743	233
3	1701	149.468549479493	234
3	1701	149.468549479493	235
3	1701	149.468549479493	236
3	1722	151.363528136049	237
3	1722	151.363528136049	238
3	1722	151.363528136049	239
3	1744	152.541363478928	240
3	1744	152.541363478928	241
3	1744	152.541363478928	242
3	1767	154.173983207061	243
3	1767	154.173983207061	244
3	1767	154.173983207061	245
3	1802	155.274674252313	246
3	1802	155.274674252313	247
3	1802	155.274674252313	248
3	1813	156.683702435475	249
3	1813	156.683702435475	250
3	1813	156.683702435475	251
3	1842	157.770389355336	252
3	1842	157.770389355336	253
3	1842	157.770389355336	254
3	1852	159.606860917539	255
3	1852	159.606860917539	256
3	1852	159.606860917539	257
3	1875	161.504347263604	258
3	1875	161.504347263604	259
3	1875	161.504347263604	260
3	1896	162.969856659836	261
3	1896	162.969856659836	262
3	1896	162.969856659836	263
3	1913	164.682035111412	264
3	1913	164.682035111412	265
3	1913	164.682035111412	266
3	1940	166.402009997165	267
3	1940	166.402009997165	268
3	1940	166.402009997165	269
3	1962	167.854097156432	270
3	1962	167.854097156432	271
3	1962	167.854097156432	272
3	1982	169.141373147121	273
3	1982	169.141373147121	274
3	1982	169.141373147121	275
3	2004	170.382344092253	276
3	2004	170.382344092253	277
3	2004	170.382344092253	278
3	2024	174.592371832511	279
3	2024	174.592371832511	280
3	2024	174.592371832511	281
3	2042	176.544424410433	282
3	2042	176.544424410433	283
3	2042	176.544424410433	284
3	2070	179.160251882521	285
3	2070	179.160251882521	286
3	2070	179.160251882521	287
3	2092	180.231600261153	288
3	2092	180.231600261153	289
3	2092	180.231600261153	290
3	2111	181.563285255886	291
3	2111	181.563285255886	292
3	2111	181.563285255886	293
3	2134	183.504410943786	294
3	2134	183.504410943786	295
3	2134	183.504410943786	296
3	2157	187.646043305934	297
3	2157	187.646043305934	298
3	2157	187.646043305934	299
3	2171	189.00555270041	300
3	2171	189.00555270041	301
3	2171	189.00555270041	302
3	2199	191.342382517929	303
3	2199	191.342382517929	304
3	2199	191.342382517929	305
3	2228	193.048863257776	306
3	2228	193.048863257776	307
3	2228	193.048863257776	308
3	2242	194.502909366824	309
3	2242	194.502909366824	310
3	2242	194.502909366824	311
3	2260	196.44484629245	312
3	2260	196.44484629245	313
3	2260	196.44484629245	314
3	2270	198.410091270944	315
3	2270	198.410091270944	316
3	2270	198.410091270944	317
3	2288	200.363049078489	318
3	2288	200.363049078489	319
3	2288	200.363049078489	320
3	2298	202.083801551006	321
3	2298	202.083801551006	322
3	2298	202.083801551006	323
3	2340	206.776645659249	324
3	2340	206.776645659249	325
3	2340	206.776645659249	326
3	2363	208.387375616377	327
3	2363	208.387375616377	328
3	2363	208.387375616377	329
3	2392	210.109316808367	330
3	2392	210.109316808367	331
3	2392	210.109316808367	332
3	2410	212.038743375021	333
3	2410	212.038743375021	334
3	2410	212.038743375021	335
3	2435	214.333604491654	336
3	2435	214.333604491654	337
3	2435	214.333604491654	338
3	2463	217.206208677484	339
3	2463	217.206208677484	340
3	2463	217.206208677484	341
3	2484	218.407226152617	342
3	2484	218.407226152617	343
3	2484	218.407226152617	344
3	2502	219.810752439228	345
3	2502	219.810752439228	346
3	2502	219.810752439228	347
3	2527	221.811773417591	348
3	2527	221.811773417591	349
3	2527	221.811773417591	350
3	2552	222.985615404901	351
3	2552	222.985615404901	352
3	2552	222.985615404901	353
3	2567	224.489186532368	354
3	2567	224.489186532368	355
3	2567	224.489186532368	356
3	2581	226.279817623792	357
3	2581	226.279817623792	358
3	2581	226.279817623792	359
3	2606	227.699462051746	360
3	2606	227.699462051746	361
3	2606	227.699462051746	362
3	2618	229.369895137928	363
3	2618	229.369895137928	364
3	2618	229.369895137928	365
3	2649	231.342302919872	366
3	2649	231.342302919872	367
3	2649	231.342302919872	368
3	2659	232.43443571052	369
3	2659	232.43443571052	370
3	2659	232.43443571052	371
3	2681	234.092644914075	372
3	2681	234.092644914075	373
3	2681	234.092644914075	374
3	2703	235.329243371645	375
3	2703	235.329243371645	376
3	2703	235.329243371645	377
3	2720	236.799660260074	378
3	2720	236.799660260074	379
3	2720	236.799660260074	380
3	2746	238.163870958815	381
3	2746	238.163870958815	382
3	2746	238.163870958815	383
4	12	0.163252200566	0
4	12	0.163252200566	1
4	12	0.163252200566	2
4	29	1.744752904091	3
4	29	1.744752904091	4
4	29	1.744752904091	5
4	52	3.222471611036	6
4	52	3.222471611036	7
4	52	3.222471611036	8
4	74	4.690428298181	9
4	74	4.690428298181	10
4	74	4.690428298181	11
4	105	7.525027829641	12
4	105	7.525027829641	13
4	105	7.525027829641	14
4	130	10.754652759196	15
4	130	10.754652759196	16
4	130	10.754652759196	17
4	151	12.425176767554	18
4	151	12.425176767554	19
4	151	12.425176767554	20
4	169	14.322523645055	21
4	169	14.322523645055	22
4	169	14.322523645055	23
4	188	16.00312993777	24
4	188	16.00312993777	25
4	188	16.00312993777	26
4	207	17.004272829912	27
4	207	17.004272829912	28
4	207	17.004272829912	29
4	228	18.860832479855	30
4	228	18.860832479855	31
4	228	18.860832479855	32
4	246	20.406544517343	33
4	246	20.406544517343	34
4	246	20.406544517343	35
4	281	23.600952113904	36
4	281	23.600952113904	37
4	281	23.600952113904	38
4	329	29.464104847773	39
4	329	29.464104847773	40
4	329	29.464104847773	41
4	344	31.468535469987	42
4	344	31.468535469987	43
4	344	31.468535469987	44
4	365	33.243224810279	45
4	365	33.243224810279	46
4	365	33.243224810279	47
4	380	35.088243934884	48
4	380	35.088243934884	49
4	380	35.088243934884	50
4	404	37.875602715026	51
4	404	37.875602715026	52
4	404	37.875602715026	53
4	426	38.931165495559	54
4	426	38.931165495559	55
4	426	38.931165495559	56
4	448	40.653175377298	57
4	448	40.653175377298	58
4	448	40.653175377298	59
4	474	41.657594127954	60
4	474	41.657594127954	61
4	474	41.657594127954	62
4	501	45.361518244459	63
4	501	45.361518244459	64
4	501	45.361518244459	65
4	519	46.529079147483	66
4	519	46.529079147483	67
4	519	46.529079147483	68
4	540	48.07969136509	69
4	540	48.07969136509	70
4	540	48.07969136509	71
4	565	49.867349156137	72
4	565	49.867349156137	73
4	565	49.867349156137	74
4	585	51.34629196933	75
4	585	51.34629196933	76
4	585	51.34629196933	77
4	610	52.353037083463	78
4	610	52.353037083463	79
4	610	52.353037083463	80
4	630	54.141215814234	81
4	630	54.141215814234	82
4	630	54.141215814234	83
4	652	55.917075552246	84
4	652	55.917075552246	85
4	652	55.917075552246	86
4	703	62.570002600899	87
4	703	62.570002600899	88
4	703	62.570002600899	89
4	725	64.450620818484	90
4	725	64.450620818484	91
4	725	64.450620818484	92
4	740	65.783185246447	93
4	740	65.783185246447	94
4	740	65.783185246447	95
4	768	67.538155165216	96
4	768	67.538155165216	97
4	768	67.538155165216	98
4	793	69.051611430041	99
4	793	69.051611430041	100
4	793	69.051611430041	101
4	811	70.981492805864	102
4	811	70.981492805864	103
4	811	70.981492805864	104
4	838	75.554324604971	105
4	838	75.554324604971	106
4	838	75.554324604971	107
4	867	76.813791494561	108
4	867	76.813791494561	109
4	867	76.813791494561	110
4	885	78.144906284236	111
4	885	78.144906284236	112
4	885	78.144906284236	113
4	904	79.978920172926	114
4	904	79.978920172926	115
4	904	79.978920172926	116
4	930	83.29355837103	117
4	930	83.29355837103	118
4	930	83.29355837103	119
4	961	84.726795855958	120
4	961	84.726795855958	121
4	961	84.726795855958	122
4	1006	90.582401520351	123
4	1006	90.582401520351	124
4	1006	90.582401520351	125
4	1029	91.822597480983	126
4	1029	91.822597480983	127
4	1029	91.822597480983	128
4	1058	96.665512864321	129
4	1058	96.665512864321	130
4	1058	96.665512864321	131
4	1079	98.123725267063	132
4	1079	98.123725267063	133
4	1079	98.123725267063	134
4	1104	99.229591574646	135
4	1104	99.229591574646	136
4	1104	99.229591574646	137
4	1129	100.743915011172	138
4	1129	100.743915011172	139
4	1129	100.743915011172	140
4	1157	102.676063882595	141
4	1157	102.676063882595	142
4	1157	102.676063882595	143
4	1169	103.729821601981	144
4	1169	103.729821601981	145
4	1169	103.729821601981	146
4	1193	104.887681374277	147
4	1193	104.887681374277	148
4	1193	104.887681374277	149
4	1211	106.063122357913	150
4	1211	106.063122357913	151
4	1211	106.063122357913	152
4	1230	107.733369085012	153
4	1230	107.733369085012	154
4	1230	107.733369085012	155
4	1280	113.83284776553	156
4	1280	113.83284776553	157
4	1280	113.83284776553	158
4	1321	117.46171743569	159
4	1321	117.46171743569	160
4	1321	117.46171743569	161
4	1346	118.626485720825	162
4	1346	118.626485720825	163
4	1346	118.626485720825	164
4	1371	120.258265972022	165
4	1371	120.258265972022	166
4	1371	120.258265972022	167
4	1389	122.111837271687	168
4	1389	122.111837271687	169
4	1389	122.111837271687	170
4	1430	124.582460583014	171
4	1430	124.582460583014	172
4	1430	124.582460583014	173
4	1460	127.038842480847	174
4	1460	127.038842480847	175
4	1460	127.038842480847	176
4	1484	130.396065092539	177
4	1484	130.396065092539	178
4	1484	130.396065092539	179
4	1509	133.541743007608	180
4	1509	133.541743007608	181
4	1509	133.541743007608	182
4	1525	136.623906927526	183
4	1525	136.623906927526	184
4	1525	136.623906927526	185
4	1545	137.869819966064	186
4	1545	137.869819966064	187
4	1545	137.869819966064	188
4	1574	139.680340345911	189
4	1574	139.680340345911	190
4	1574	139.680340345911	191
4	1596	141.114497670667	192
4	1596	141.114497670667	193
4	1596	141.114497670667	194
4	1612	142.694198450347	195
4	1612	142.694198450347	196
4	1612	142.694198450347	197
4	1640	145.569104838338	198
4	1640	145.569104838338	199
4	1640	145.569104838338	200
4	1655	146.811364427719	201
4	1655	146.811364427719	202
4	1655	146.811364427719	203
4	1684	148.01442570668	204
4	1684	148.01442570668	205
4	1684	148.01442570668	206
4	1702	149.477746660792	207
4	1702	149.477746660792	208
4	1702	149.477746660792	209
4	1723	151.368874795975	210
4	1723	151.368874795975	211
4	1723	151.368874795975	212
4	1748	152.547415430696	213
4	1748	152.547415430696	214
4	1748	152.547415430696	215
4	1766	154.172039284241	216
4	1766	154.172039284241	217
4	1766	154.172039284241	218
4	1791	155.227594498013	219
4	1791	155.227594498013	220
4	1791	155.227594498013	221
4	1814	156.686494507831	222
4	1814	156.686494507831	223
4	1814	156.686494507831	224
4	1838	157.758282780023	225
4	1838	157.758282780023	226
4	1838	157.758282780023	227
4	1860	159.644138388448	228
4	1860	159.644138388448	229
4	1860	159.644138388448	230
4	1876	161.506719831605	231
4	1876	161.506719831605	232
4	1876	161.506719831605	233
4	1900	162.982003484503	234
4	1900	162.982003484503	235
4	1900	162.982003484503	236
4	1925	164.739416444524	237
4	1925	164.739416444524	238
4	1925	164.739416444524	239
4	1939	166.394149244047	240
4	1939	166.394149244047	241
4	1939	166.394149244047	242
4	1963	167.855465809299	243
4	1963	167.855465809299	244
4	1963	167.855465809299	245
4	1990	169.15639934738	246
4	1990	169.15639934738	247
4	1990	169.15639934738	248
4	2043	176.551318535845	249
4	2043	176.551318535845	250
4	2043	176.551318535845	251
4	2074	179.166475858009	252
4	2074	179.166475858009	253
4	2074	179.166475858009	254
4	2093	180.236159900268	255
4	2093	180.236159900268	256
4	2093	180.236159900268	257
4	2110	181.559502582549	258
4	2110	181.559502582549	259
4	2110	181.559502582549	260
4	2183	189.0574394137	261
4	2183	189.0574394137	262
4	2183	189.0574394137	263
4	2211	191.383084830267	264
4	2211	191.383084830267	265
4	2211	191.383084830267	266
4	2229	193.054405645463	267
4	2229	193.054405645463	268
4	2229	193.054405645463	269
4	2282	200.349476319862	270
4	2282	200.349476319862	271
4	2282	200.349476319862	272
4	2310	202.108097510475	273
4	2310	202.108097510475	274
4	2310	202.108097510475	275
4	2321	203.369648900408	276
4	2321	203.369648900408	277
4	2321	203.369648900408	278
4	2341	206.780615879272	279
4	2341	206.780615879272	280
4	2341	206.780615879272	281
4	2371	208.414174807002	282
4	2371	208.414174807002	283
4	2371	208.414174807002	284
4	2393	210.110072551395	285
4	2393	210.110072551395	286
4	2393	210.110072551395	287
4	2411	212.041798302175	288
4	2411	212.041798302175	289
4	2411	212.041798302175	290
4	2439	214.346837830244	291
4	2439	214.346837830244	292
4	2439	214.346837830244	293
4	2464	217.20634161326	294
4	2464	217.20634161326	295
4	2464	217.20634161326	296
4	2485	218.410670161535	297
4	2485	218.410670161535	298
4	2485	218.410670161535	299
4	2514	219.850008381712	300
4	2514	219.850008381712	301
4	2514	219.850008381712	302
4	2536	221.845143977486	303
4	2536	221.845143977486	304
4	2536	221.845143977486	305
4	2563	224.478159257219	306
4	2563	224.478159257219	307
4	2563	224.478159257219	308
4	2596	227.645123857488	309
4	2596	227.645123857488	310
4	2596	227.645123857488	311
4	2617	229.362982484175	312
4	2617	229.362982484175	313
4	2617	229.362982484175	314
4	2641	231.300285882325	315
4	2641	231.300285882325	316
4	2641	231.300285882325	317
4	2667	232.477153873429	318
4	2667	232.477153873429	319
4	2667	232.477153873429	320
4	2682	234.097641151089	321
4	2682	234.097641151089	322
4	2682	234.097641151089	323
4	2704	235.330028328207	324
4	2704	235.330028328207	325
4	2704	235.330028328207	326
4	2728	236.8309915433	327
4	2728	236.8309915433	328
4	2728	236.8309915433	329
4	2753	238.184482957075	330
4	2753	238.184482957075	331
4	2753	238.184482957075	332
5	37	1.771152856894	0
5	37	1.771152856894	1
5	37	1.771152856894	2
5	56	3.230770954706	3
5	56	3.230770954706	4
5	56	3.230770954706	5
5	81	4.710910312711	6
5	81	4.710910312711	7
5	81	4.710910312711	8
5	109	7.536786965095	9
5	109	7.536786965095	10
5	109	7.536786965095	11
5	174	14.333510148139	12
5	174	14.333510148139	13
5	174	14.333510148139	14
5	232	18.892127473816	15
5	232	18.892127473816	16
5	232	18.892127473816	17
5	299	24.686699479003	18
5	299	24.686699479003	19
5	299	24.686699479003	20
5	390	35.106673722638	21
5	390	35.106673722638	22
5	390	35.106673722638	23
5	410	37.886298891737	24
5	410	37.886298891737	25
5	410	37.886298891737	26
5	431	38.962501128434	27
5	431	38.962501128434	28
5	431	38.962501128434	29
5	453	40.669780408095	30
5	453	40.669780408095	31
5	453	40.669780408095	32
5	506	45.38908416141	33
5	506	45.38908416141	34
5	506	45.38908416141	35
5	551	48.110831131045	36
5	551	48.110831131045	37
5	551	48.110831131045	38
5	569	49.878952497082	39
5	569	49.878952497082	40
5	569	49.878952497082	41
5	591	51.357321652967	42
5	591	51.357321652967	43
5	591	51.357321652967	44
5	641	54.17091638989	45
5	641	54.17091638989	46
5	641	54.17091638989	47
5	711	62.593881415617	48
5	711	62.593881415617	49
5	711	62.593881415617	50
5	744	65.793145166562	51
5	744	65.793145166562	52
5	744	65.793145166562	53
5	775	67.556441172672	54
5	775	67.556441172672	55
5	775	67.556441172672	56
5	807	70.970527393074	57
5	807	70.970527393074	58
5	807	70.970527393074	59
5	842	75.564791953988	60
5	842	75.564791953988	61
5	842	75.564791953988	62
5	863	76.79374216147	63
5	863	76.79374216147	64
5	863	76.79374216147	65
5	893	78.167573715285	66
5	893	78.167573715285	67
5	893	78.167573715285	68
5	915	80.011132314758	69
5	915	80.011132314758	70
5	915	80.011132314758	71
5	957	84.704449057197	72
5	957	84.704449057197	73
5	957	84.704449057197	74
5	1014	90.626550769375	75
5	1014	90.626550769375	76
5	1014	90.626550769375	77
5	1036	91.843875085319	78
5	1036	91.843875085319	79
5	1036	91.843875085319	80
5	1067	96.680977354984	81
5	1067	96.680977354984	82
5	1067	96.680977354984	83
5	1089	98.163600437949	84
5	1089	98.163600437949	85
5	1089	98.163600437949	86
5	1114	99.251213523085	87
5	1114	99.251213523085	88
5	1114	99.251213523085	89
5	1136	100.7572994225	90
5	1136	100.7572994225	91
5	1136	100.7572994225	92
5	1179	103.750939780789	93
5	1179	103.750939780789	94
5	1179	103.750939780789	95
5	1219	106.080348380288	96
5	1219	106.080348380288	97
5	1219	106.080348380288	98
5	1234	107.754132989606	99
5	1234	107.754132989606	100
5	1234	107.754132989606	101
5	1286	113.847633531241	102
5	1286	113.847633531241	103
5	1286	113.847633531241	104
5	1350	118.64762686819	105
5	1350	118.64762686819	106
5	1350	118.64762686819	107
5	1396	122.12913849189	108
5	1396	122.12913849189	109
5	1396	122.12913849189	110
5	1425	124.570795681075	111
5	1425	124.570795681075	112
5	1425	124.570795681075	113
5	1456	127.024308346664	114
5	1456	127.024308346664	115
5	1456	127.024308346664	116
5	1502	133.531190058792	117
5	1502	133.531190058792	118
5	1502	133.531190058792	119
5	1534	136.642324643928	120
5	1534	136.642324643928	121
5	1534	136.642324643928	122
5	1569	139.666713434549	123
5	1569	139.666713434549	124
5	1569	139.666713434549	125
5	1620	142.718893783506	126
5	1620	142.718893783506	127
5	1620	142.718893783506	128
5	1666	146.837682832083	129
5	1666	146.837682832083	130
5	1666	146.837682832083	131
5	1731	151.387683872148	132
5	1731	151.387683872148	133
5	1731	151.387683872148	134
5	1752	152.557038804766	135
5	1752	152.557038804766	136
5	1752	152.557038804766	137
5	1777	154.196774062008	138
5	1777	154.196774062008	139
5	1777	154.196774062008	140
5	1795	155.242726581825	141
5	1795	155.242726581825	142
5	1795	155.242726581825	143
5	1818	156.694934269198	144
5	1818	156.694934269198	145
5	1818	156.694934269198	146
5	1856	159.631693819522	147
5	1856	159.631693819522	148
5	1856	159.631693819522	149
5	1918	164.714057795866	150
5	1918	164.714057795866	151
5	1918	164.714057795866	152
5	1950	166.432144471732	153
5	1950	166.432144471732	154
5	1950	166.432144471732	155
5	1972	167.876138368033	156
5	1972	167.876138368033	157
5	1972	167.876138368033	158
5	2047	176.555862523981	159
5	2047	176.555862523981	160
5	2047	176.555862523981	161
5	2081	179.177713332491	162
5	2081	179.177713332491	163
5	2081	179.177713332491	164
5	2138	183.516060011345	165
5	2138	183.516060011345	166
5	2138	183.516060011345	167
5	2175	189.040003908827	168
5	2175	189.040003908827	169
5	2175	189.040003908827	170
5	2203	191.355473694831	171
5	2203	191.355473694831	172
5	2203	191.355473694831	173
5	2303	202.095537869744	174
5	2303	202.095537869744	175
5	2303	202.095537869744	176
5	2353	206.817510073156	177
5	2353	206.817510073156	178
5	2353	206.817510073156	179
5	2367	208.399594446558	180
5	2367	208.399594446558	181
5	2367	208.399594446558	182
5	2418	212.063600502697	183
5	2418	212.063600502697	184
5	2418	212.063600502697	185
5	2440	214.350829478341	186
5	2440	214.350829478341	187
5	2440	214.350829478341	188
5	2492	218.421348646357	189
5	2492	218.421348646357	190
5	2492	218.421348646357	191
5	2507	219.834603447792	192
5	2507	219.834603447792	193
5	2507	219.834603447792	194
5	2535	221.841548836981	195
5	2535	221.841548836981	196
5	2535	221.841548836981	197
5	2571	224.501480807583	198
5	2571	224.501480807583	199
5	2571	224.501480807583	200
5	2645	231.31447296456	201
5	2645	231.31447296456	202
5	2645	231.31447296456	203
5	2689	234.114921050657	204
5	2689	234.114921050657	205
5	2689	234.114921050657	206
5	2724	236.813045140683	207
5	2724	236.813045140683	208
5	2724	236.813045140683	209
6	40	1.781152856894	0
6	508	45.395261674603	1
6	573	49.888952497082	2
6	754	65.805929881667	3
6	866	76.80374216147	4
6	896	78.177573715285	5
6	942	83.331833633708	6
6	1140	100.7672994225	7
6	1237	107.764132989606	8
6	1859	159.641693819522	9
6	1931	164.763307445108	10
6	2056	176.590180024114	11
6	2141	183.526060011345	12
6	2207	191.365473694831	13
6	2309	202.105537869744	14
6	2356	206.827510073156	15
6	2539	221.851548836981	16
7	254	20.425868546147	0
7	254	20.425868546147	1
7	369	33.280438292838	2
7	369	33.280438292838	3
7	505	45.385261674603	4
7	505	45.385261674603	5
7	544	48.093818663757	6
7	544	48.093818663757	7
7	617	52.375968562051	8
7	617	52.375968562051	9
7	635	54.159365997543	10
7	635	54.159365997543	11
7	660	55.93040958563	12
7	660	55.93040958563	13
7	729	64.481995035388	14
7	729	64.481995035388	15
7	748	65.795929881667	16
7	748	65.795929881667	17
7	843	75.569013818244	18
7	843	75.569013818244	19
7	940	83.321833633708	20
7	940	83.321833633708	21
7	965	84.738448786081	22
7	965	84.738448786081	23
7	1090	98.169510284321	24
7	1090	98.169510284321	25
7	1137	100.765331166407	26
7	1137	100.765331166407	27
7	1287	113.847952717157	28
7	1287	113.847952717157	29
7	1354	118.66101877924	30
7	1354	118.66101877924	31
7	1375	120.278338698906	32
7	1375	120.278338698906	33
7	1556	137.892600829003	34
7	1556	137.892600829003	35
7	1581	139.698738680925	36
7	1581	139.698738680925	37
7	1621	142.726981547775	38
7	1621	142.726981547775	39
7	1688	148.032320472628	40
7	1688	148.032320472628	41
7	1709	149.512942562382	42
7	1709	149.512942562382	43
7	1730	151.385355499572	44
7	1730	151.385355499572	45
7	1774	154.186263318735	46
7	1774	154.186263318735	47
7	1796	155.247475984545	48
7	1796	155.247475984545	49
7	1825	156.710286661338	50
7	1825	156.710286661338	51
7	1904	163.028729080355	52
7	1904	163.028729080355	53
7	1929	164.753307445108	54
7	1929	164.753307445108	55
7	2054	176.580180024114	56
7	2054	176.580180024114	57
7	2119	181.585167680601	58
7	2119	181.585167680601	59
7	2215	191.393768413816	60
7	2215	191.393768413816	61
7	2350	206.802788674366	62
7	2350	206.802788674366	63
7	2379	208.441722393899	64
7	2379	208.441722393899	65
7	2419	212.06794657012	66
7	2419	212.06794657012	67
7	2518	219.863099897224	68
7	2518	219.863099897224	69
7	2543	221.855507948385	70
7	2543	221.855507948385	71
7	2601	227.666786226972	72
7	2601	227.666786226972	73
7	2625	229.380950625835	74
7	2625	229.380950625835	75
7	2711	235.340810941686	76
7	2711	235.340810941686	77
7	2736	236.872427039136	78
7	2736	236.872427039136	79

