version 2
run General-3-20231004-18:49:14-10432
attr configname General
attr datetime 20231004-18:49:14
attr experiment General
attr inifile omnetpp.ini
attr iterationvars ""
attr iterationvarsf ""
attr measurement ""
attr network Multihop
attr processid 10432
attr repetition 3
attr replication #3
attr resultdir results
attr runnumber 3
attr seedset 3
param Multihop.node[*].transmissionTime "uniform(1s, 2s)"
param Multihop.node[*].delayTime "uniform(0.01s, 0.2s)"
param Multihop.node[*].processingTime exponential(0.01s)
param Multihop.node[0].lossProbability 0
param Multihop.node[1].lossProbability 0.2
param Multihop.node[2].lossProbability 0.7
param Multihop.node[3].lossProbability 0.3
param Multihop.node[4].lossProbability 0.8
param Multihop.node[5].lossProbability 0.5

vector 0 Multihop.node[0] txVector ETV
vector 1 Multihop.node[1] txVector ETV
vector 2 Multihop.node[2] txVector ETV
vector 3 Multihop.node[3] txVector ETV
vector 4 Multihop.node[4] txVector ETV
vector 5 Multihop.node[5] rxVector ETV
0	1	0.114651601831	0
0	5	1.185376482154	1
0	13	2.306705061416	2
0	17	3.347335798968	3
0	21	4.440887294546	4
0	25	5.58625744197	5
0	29	6.801834454364	6
0	33	8.294470375473	7
0	37	10.060296749998	8
0	41	11.462657392327	9
0	45	12.769018019386	10
0	47	14.04393812695	11
0	55	15.498545891907	12
0	63	17.391610998264	13
0	71	18.716917175403	14
0	75	20.130635859048	15
0	79	21.844201606767	16
0	83	23.159968855161	17
0	87	24.908126291888	18
0	95	26.11148082076	19
0	99	27.92270857708	20
0	103	28.997908690781	21
0	107	30.061678492534	22
0	111	31.754312239657	23
0	119	33.116652698326	24
0	123	34.432937231916	25
0	127	35.922228487511	26
0	131	37.748356562177	27
0	133	38.890955908526	28
0	139	40.193219522083	29
0	143	41.214445262285	30
0	147	42.240471528912	31
0	151	44.158501551323	32
0	153	46.084234335762	33
0	155	47.361557384789	34
0	157	48.537619500024	35
0	159	50.527920688571	36
0	161	52.220571304973	37
0	165	53.972711335005	38
0	169	55.058712050387	39
0	175	56.388283408315	40
0	183	57.813013359041	41
0	193	59.613616869853	42
0	197	60.89702424181	43
0	199	62.442406858619	44
0	201	64.270428975647	45
0	211	65.504120984882	46
0	213	66.973502297256	47
0	221	68.476032513495	48
0	225	70.362930640879	49
0	227	71.935168260776	50
0	229	73.277587847619	51
0	233	74.88723356237	52
0	235	75.926151660106	53
0	239	77.926127123947	54
0	247	79.183333501986	55
0	251	81.018579812555	56
0	255	83.014022987403	57
0	257	84.561153741621	58
0	259	86.052969289778	59
0	261	87.182627673794	60
0	265	89.042681136702	61
0	269	90.867012531099	62
0	273	92.858308252015	63
0	277	94.32897423331	64
0	279	95.668980158468	65
0	283	97.365730146247	66
0	287	99.182765507207	67
0	295	100.264336549745	68
0	299	101.359217883621	69
0	303	102.897681575336	70
0	307	104.207643210024	71
0	315	105.704308164606	72
0	319	107.70212056448	73
0	327	109.521662648136	74
0	335	111.235267192193	75
0	343	113.163766038672	76
0	347	114.76625656972	77
0	351	116.20984424867	78
0	355	117.992228227735	79
0	359	119.373157098957	80
0	369	120.478816303492	81
0	373	121.888907638213	82
0	375	122.91100345256	83
0	379	124.13337977214	84
0	383	125.916137302595	85
0	387	127.393069066874	86
0	391	128.761549332015	87
0	395	130.56437730214	88
0	399	131.9254610772	89
0	401	133.231588373495	90
0	403	134.515277823269	91
0	407	135.728172158891	92
0	409	136.85399319867	93
0	413	138.84691675573	94
0	417	140.463622042512	95
0	421	141.756976556334	96
0	423	143.155113467549	97
0	429	144.943702603758	98
0	433	146.068324353846	99
0	437	147.300422743263	100
0	439	148.575060212819	101
0	443	150.51697457635	102
0	451	151.592762781141	103
0	455	153.322922319473	104
0	459	154.503662648444	105
0	463	155.869144320554	106
0	469	157.662466998744	107
0	475	159.300519880206	108
0	477	160.831983010583	109
0	481	162.010521844561	110
0	485	163.035547127082	111
0	489	164.361811132469	112
0	495	165.462388845227	113
0	503	166.532758604569	114
0	507	168.066353539537	115
0	513	169.683698165763	116
0	517	171.527973797705	117
0	521	173.384591956224	118
0	525	174.490333455216	119
0	531	176.320203491786	120
0	539	177.511486782992	121
0	547	179.327756031716	122
0	551	181.002086406873	123
0	555	182.718002106362	124
0	559	183.806579962439	125
0	567	185.720960401298	126
0	571	187.617369387831	127
0	579	189.035592195179	128
0	581	190.575464339528	129
0	585	192.438715948557	130
0	589	194.335779556373	131
0	591	196.178020783767	132
0	595	197.810981317025	133
0	603	198.854487410581	134
1	3	0.14297423212	0
1	7	1.203800179986	1
1	15	2.319553765727	2
1	19	3.36920445393	3
1	23	4.456923509708	4
1	27	5.60062553037	5
1	31	6.836287635879	6
1	35	8.340832589389	7
1	39	10.07834361632	8
1	43	11.481491271772	9
1	49	14.068112479209	10
1	57	15.52121935063	11
1	65	17.418162110632	12
1	73	18.742388311021	13
1	77	20.140869748753	14
1	81	21.862474568036	15
1	85	23.179375295573	16
1	89	24.928728793611	17
1	97	26.1261668625	18
1	101	27.947003873496	19
1	105	29.026299790551	20
1	109	30.077582601518	21
1	113	31.771570898517	22
1	121	33.145218052609	23
1	125	34.45070512018	24
1	129	35.939601658927	25
1	135	38.917407734363	26
1	141	40.209805932382	27
1	145	41.231488841306	28
1	149	42.252790422454	29
1	163	52.231806737554	30
1	167	53.993666244883	31
1	171	55.073200745628	32
1	177	56.415419218275	33
1	185	57.827320037835	34
1	195	59.644979820738	35
1	203	64.282696446612	36
1	215	66.985394102306	37
1	223	68.493029303968	38
1	231	73.288873199337	39
1	237	75.93927069405	40
1	241	77.939365627884	41
1	249	79.194915446362	42
1	253	81.03297617231	43
1	263	87.195091768732	44
1	267	89.116353628969	45
1	271	90.87872836237	46
1	275	92.880598816757	47
1	281	95.692779612837	48
1	285	97.394550618046	49
1	289	99.196442631083	50
1	297	100.279543608881	51
1	301	101.379703919681	52
1	305	102.926092360688	53
1	309	104.229808378221	54
1	317	105.716047498864	55
1	321	107.715723067638	56
1	329	109.534386462701	57
1	337	111.249778245981	58
1	345	113.176398678762	59
1	349	114.78655886516	60
1	353	116.235631506208	61
1	357	118.007469312218	62
1	361	119.388937490831	63
1	371	120.490314961544	64
1	377	122.925415603811	65
1	381	124.149347260675	66
1	385	125.933399912032	67
1	389	127.406112973718	68
1	393	128.794652562058	69
1	397	130.595924529449	70
1	405	134.530729690834	71
1	411	136.869676585993	72
1	415	138.895585940019	73
1	419	140.479679117448	74
1	425	143.174722536025	75
1	431	144.954016779768	76
1	435	146.078452729257	77
1	441	148.588300463892	78
1	445	150.530181480938	79
1	453	151.612312822738	80
1	457	153.346541436413	81
1	461	154.5286578181	82
1	465	155.88920383497	83
1	471	157.683112989594	84
1	479	160.856642175451	85
1	483	162.021203239959	86
1	487	163.054316146945	87
1	491	164.378781145318	88
1	497	165.490646356636	89
1	505	166.561366290958	90
1	509	168.128420090085	91
1	515	169.698911592864	92
1	519	171.553886144497	93
1	523	173.407157926751	94
1	527	174.510405823221	95
1	533	176.338559392856	96
1	541	177.538816042516	97
1	549	179.361654689896	98
1	553	181.027647476004	99
1	557	182.733649966597	100
1	561	183.831025735038	101
1	569	185.744551223997	102
1	573	187.664235645138	103
1	583	190.594440844028	104
1	587	192.456663939194	105
1	593	196.203684124941	106
1	597	197.824163189623	107
1	605	198.874082413182	108
2	9	1.219546036734	0
2	51	14.095126406489	1
2	59	15.531427650099	2
2	67	17.433253563597	3
2	91	24.949596211814	4
2	115	31.787683477387	5
2	137	38.931256935973	6
2	173	55.090668567237	7
2	179	56.433888841489	8
2	187	57.852136585331	9
2	205	64.32447768101	10
2	217	66.998938118374	11
2	243	77.95226569575	12
2	291	99.214674876926	13
2	311	104.251167876869	14
2	323	107.726842687153	15
2	331	109.556348680724	16
2	339	111.275875491873	17
2	363	119.41819478741	18
2	427	143.193675806288	19
2	447	150.582887300054	20
2	467	155.913501748592	21
2	473	157.693117778896	22
2	493	164.404925460613	23
2	499	165.512367099061	24
2	511	168.142487493869	25
2	529	174.52456601643	26
2	535	176.348833432422	27
2	543	177.549048963938	28
2	563	183.843327914596	29
2	575	187.710386519301	30
2	599	197.844074468021	31
3	11	1.229735296555	0
3	53	14.108104879348	1
3	61	15.542967525875	2
3	69	17.448782227932	3
3	93	24.980081227442	4
3	117	31.814204960577	5
3	181	56.465184469573	6
3	189	57.884818099099	7
3	207	64.349008552815	8
3	219	67.012068901192	9
3	245	77.985067772137	10
3	293	99.249914730526	11
3	313	104.270933689453	12
3	325	107.740215670728	13
3	333	109.56660727435	14
3	341	111.298589296894	15
3	365	119.463071877189	16
3	449	150.598379923069	17
3	501	165.523692790005	18
3	537	176.359377730507	19
3	545	177.561118602887	20
3	565	183.855964756947	21
3	577	187.720970229894	22
3	601	197.863160288527	23
4	191	57.910223298467	0
4	209	64.361094191943	1
4	367	119.485806936611	2
5	192	57.920223298467	0
5	210	64.371094191943	1
5	368	119.495806936611	2

