version 2
run General-4-20231004-18:49:14-10432
attr configname General
attr datetime 20231004-18:49:14
attr experiment General
attr inifile omnetpp.ini
attr iterationvars ""
attr iterationvarsf ""
attr measurement ""
attr network Multihop
attr processid 10432
attr repetition 4
attr replication #4
attr resultdir results
attr runnumber 4
attr seedset 4
param Multihop.node[*].transmissionTime "uniform(1s, 2s)"
param Multihop.node[*].delayTime "uniform(0.01s, 0.2s)"
param Multihop.node[*].processingTime exponential(0.01s)
param Multihop.node[0].lossProbability 0
param Multihop.node[1].lossProbability 0.2
param Multihop.node[2].lossProbability 0.7
param Multihop.node[3].lossProbability 0.3
param Multihop.node[4].lossProbability 0.8
param Multihop.node[5].lossProbability 0.5

vector 0 Multihop.node[0] txVector ETV
vector 1 Multihop.node[1] txVector ETV
vector 2 Multihop.node[2] txVector ETV
vector 3 Multihop.node[3] txVector ETV
vector 4 Multihop.node[4] txVector ETV
vector 5 Multihop.node[5] rxVector ETV
0	1	0.193735669288	0
0	9	2.094357123985	1
0	15	3.691913329684	2
0	19	5.390333569064	3
0	23	7.023296668581	4
0	29	8.595653160396	5
0	33	9.987419355814	6
0	37	11.59994469901	7
0	41	13.24385896224	8
0	49	14.262883703377	9
0	51	15.704232236756	10
0	55	16.769941775514	11
0	59	18.635824530538	12
0	67	20.560977689609	13
0	69	21.596735877836	14
0	73	22.825498548023	15
0	77	24.006219142269	16
0	81	25.247257747374	17
0	87	26.879921725638	18
0	91	28.456918694464	19
0	95	29.924669047504	20
0	99	31.007838142257	21
0	103	32.055243637333	22
0	107	33.291384959746	23
0	111	34.417566620432	24
0	115	36.103154823803	25
0	119	37.418828311762	26
0	123	39.116993916607	27
0	127	41.021570008867	28
0	135	42.868292280626	29
0	139	43.948271520589	30
0	147	45.043469597972	31
0	149	46.107720975219	32
0	153	48.051671648319	33
0	157	49.643545294101	34
0	161	51.01031496298	35
0	163	52.530989364409	36
0	167	53.838002036014	37
0	177	55.767370636263	38
0	181	57.417811745466	39
0	183	58.653963411614	40
0	191	60.135423354959	41
0	195	62.103102984294	42
0	199	63.988900077218	43
0	203	65.360006260142	44
0	211	66.472516595774	45
0	213	68.349309452499	46
0	217	70.286443957981	47
0	221	72.033938771501	48
0	223	73.037859668644	49
0	227	74.50018903093	50
0	237	75.808983595498	51
0	241	76.899125317965	52
0	251	78.460593782055	53
0	253	80.122896217198	54
0	257	81.706439748795	55
0	261	83.610816370619	56
0	265	85.507508225662	57
0	273	87.122327674569	58
0	275	88.614115312153	59
0	279	90.545529579667	60
0	289	92.045491033855	61
0	293	93.915883175253	62
0	301	95.055064974741	63
0	303	96.371341480563	64
0	309	98.125196930409	65
0	317	99.352177949777	66
0	321	100.659594562292	67
0	325	101.95422712077	68
0	335	103.218487630054	69
0	337	104.967729644538	70
0	339	106.695458315932	71
0	347	108.385243609934	72
0	351	110.337214030479	73
0	355	111.650580656635	74
0	359	113.534623043532	75
0	361	114.637418284001	76
0	365	115.731498926565	77
0	373	116.926446614241	78
0	383	118.304291630316	79
0	387	120.051540073392	80
0	397	121.666902088246	81
0	399	123.072661302204	82
0	403	125.044364623411	83
0	407	126.329609217041	84
0	411	127.792458975141	85
0	413	129.548108264257	86
0	417	130.799606730382	87
0	421	132.387241136667	88
0	431	133.412642838119	89
0	435	134.520634031307	90
0	443	136.048148436623	91
0	453	137.228621987544	92
0	457	139.056730042595	93
0	465	140.168604358948	94
0	467	142.00447889642	95
0	471	143.53355127914	96
0	475	144.596118184888	97
0	477	146.049947423545	98
0	481	147.399678521241	99
0	485	149.269104438984	100
0	487	150.434266213943	101
0	489	151.725106067174	102
0	491	153.470933631212	103
0	495	155.422602223382	104
0	503	156.742966876049	105
0	507	158.277987042591	106
0	509	159.851270646704	107
0	513	161.252969735218	108
0	515	162.608591393251	109
0	519	163.915996280648	110
0	523	165.80500677336	111
0	525	167.670101229483	112
0	527	169.40031656079	113
0	531	170.996819837634	114
0	535	172.662076611221	115
0	539	174.282645861535	116
0	541	176.181870235978	117
0	545	177.966480971696	118
0	549	179.900023600701	119
0	553	181.164939323822	120
0	561	183.122699075993	121
0	563	184.627699487526	122
0	567	185.660758955088	123
0	571	187.50181325866	124
0	577	189.476793216226	125
0	581	191.04327325049	126
0	589	192.142472545534	127
0	593	193.191797320881	128
0	597	195.041862456278	129
0	599	197.0222999937	130
0	603	198.681335520847	131
1	3	0.205631491707	0
1	11	2.105882392658	1
1	17	3.725262194422	2
1	21	5.400385294106	3
1	25	7.037782947317	4
1	31	8.622363514697	5
1	35	10.000518275214	6
1	39	11.626608068143	7
1	43	13.254264894552	8
1	53	15.716166400347	9
1	57	16.798490565086	10
1	61	18.666250341681	11
1	71	21.60910805609	12
1	75	22.839298220888	13
1	79	24.02092507524	14
1	83	25.25978131521	15
1	89	26.894255337416	16
1	93	28.471362308626	17
1	97	29.937584738464	18
1	101	31.044346336251	19
1	105	32.081898691441	20
1	109	33.302172214568	21
1	113	34.456955231171	22
1	117	36.134051526641	23
1	121	37.43323467229	24
1	125	39.13171669026	25
1	129	41.044791611019	26
1	137	42.878749033031	27
1	141	43.960723243318	28
1	151	46.119498754828	29
1	155	48.091700155804	30
1	159	49.653763852133	31
1	165	52.558895878313	32
1	169	53.849382426627	33
1	179	55.805063215839	34
1	185	58.690192501271	35
1	193	60.149289037499	36
1	197	62.120985850153	37
1	201	64.000372623553	38
1	205	65.370756548394	39
1	215	68.366294026503	40
1	219	70.303141606729	41
1	225	73.049431615545	42
1	229	74.524181290366	43
1	239	75.82115651145	44
1	243	76.90923013207	45
1	255	80.145874035852	46
1	259	81.716608338582	47
1	263	83.627826168033	48
1	267	85.518955543306	49
1	277	88.651587459431	50
1	281	90.560799730845	51
1	291	92.078327860376	52
1	295	93.938960025329	53
1	305	96.384615859424	54
1	311	98.150067877822	55
1	319	99.421715738031	56
1	323	100.680624147039	57
1	327	101.969715268128	58
1	341	106.711466196575	59
1	349	108.39540981978	60
1	353	110.393383341319	61
1	357	111.66078209556	62
1	363	114.650507985661	63
1	367	115.746509929469	64
1	375	116.941416960129	65
1	385	118.315167931991	66
1	389	120.063712075349	67
1	401	123.083110465312	68
1	405	125.05751809006	69
1	409	126.34513945714	70
1	415	129.578011377347	71
1	419	130.821921707821	72
1	423	132.398707073599	73
1	433	133.423592456495	74
1	437	134.532919504733	75
1	445	136.068380542344	76
1	455	137.243549394523	77
1	459	139.074721237538	78
1	469	142.019806900241	79
1	473	143.545733142644	80
1	479	146.06197495201	81
1	483	147.414023464002	82
1	493	153.491804073752	83
1	497	155.439631367686	84
1	505	156.756454554384	85
1	511	159.877270179212	86
1	517	162.620028620287	87
1	521	163.931217772693	88
1	529	169.427199553407	89
1	533	171.00841560644	90
1	537	172.672791242931	91
1	543	176.191909037535	92
1	547	177.978938904707	93
1	551	179.931343723128	94
1	555	181.177697238702	95
1	565	184.640018341832	96
1	569	185.68947951564	97
1	573	187.514274382824	98
1	579	189.515008044062	99
1	583	191.085871058006	100
1	591	192.15464305652	101
1	595	193.208576280175	102
1	601	197.035480643868	103
1	605	198.694108161421	104
2	5	0.234984622813	0
2	13	2.118424942046	1
2	27	7.057049690293	2
2	45	13.293269814568	3
2	63	18.694284009871	4
2	85	25.27127503376	5
2	131	41.066797430814	6
2	143	43.987174751581	7
2	171	53.87716900925	8
2	187	58.702145450532	9
2	207	65.382903827492	10
2	231	74.548260940935	11
2	245	76.92184244084	12
2	269	85.535341528408	13
2	283	90.587451198975	14
2	297	93.95729203728	15
2	307	96.395889383931	16
2	313	98.175563479397	17
2	329	102.000677313016	18
2	343	106.728090516821	19
2	369	115.772090369845	20
2	377	116.955017586182	21
2	391	120.078505898305	22
2	425	132.416612597448	23
2	439	134.546384781614	24
2	447	136.079440263046	25
2	461	139.100423437365	26
2	499	155.450581890018	27
2	557	181.194449057187	28
2	575	187.557921667392	29
2	585	191.100639789141	30
2	607	198.714406659037	31
3	7	0.254376010482	0
3	47	13.309182025737	1
3	65	18.707308205636	2
3	133	41.087869215781	3
3	145	43.998232584598	4
3	173	53.902622057703	5
3	189	58.713806329935	6
3	209	65.392933136356	7
3	233	74.58321194225	8
3	247	76.932218021991	9
3	271	85.555408319935	10
3	285	90.604703186417	11
3	299	93.989454986488	12
3	315	98.196082438833	13
3	331	102.019759494239	14
3	345	106.743286045513	15
3	371	115.78301273515	16
3	379	116.971319919808	17
3	393	120.117963351929	18
3	427	132.429648574294	19
3	441	134.582312432841	20
3	449	136.09517030578	21
3	463	139.172662410862	22
3	501	155.470586511635	23
3	559	181.217944443732	24
3	587	191.111842916652	25
3	609	198.725589663407	26
4	175	53.92432241377	0
4	235	74.620048790062	1
4	249	76.94309958685	2
4	287	90.621430538464	3
4	333	102.033051655507	4
4	381	117.028058387071	5
4	395	120.130647089697	6
4	429	132.441687639193	7
4	451	136.118530534937	8
5	176	53.93432241377	0
5	288	90.631430538464	1
5	334	102.043051655507	2
5	396	120.140647089697	3

