version 2
run General-0-20231004-18:49:14-10432
attr configname General
attr datetime 20231004-18:49:14
attr experiment General
attr inifile omnetpp.ini
attr iterationvars ""
attr iterationvarsf ""
attr measurement ""
attr network Multihop
attr processid 10432
attr repetition 0
attr replication #0
attr resultdir results
attr runnumber 0
attr seedset 0
param Multihop.node[*].transmissionTime "uniform(1s, 2s)"
param Multihop.node[*].delayTime "uniform(0.01s, 0.2s)"
param Multihop.node[*].processingTime exponential(0.01s)
param Multihop.node[0].lossProbability 0
param Multihop.node[1].lossProbability 0.2
param Multihop.node[2].lossProbability 0.7
param Multihop.node[3].lossProbability 0.3
param Multihop.node[4].lossProbability 0.8
param Multihop.node[5].lossProbability 0.5

vector 0 Multihop.node[0] txVector ETV
vector 1 Multihop.node[1] txVector ETV
vector 2 Multihop.node[2] txVector ETV
vector 3 Multihop.node[3] txVector ETV
vector 4 Multihop.node[4] txVector ETV
vector 5 Multihop.node[5] rxVector ETV
0	1	0.114274565438	0
0	5	1.707119181827	1
0	9	3.565064801676	2
0	13	5.188628498073	3
0	21	6.486163103328	4
0	25	8.298331829793	5
0	29	9.691116622956	6
0	31	11.028512784587	7
0	33	12.676684661144	8
0	43	14.044926198506	9
0	49	15.845836951005	10
0	53	17.566469602593	11
0	57	19.103842830824	12
0	61	20.209750437251	13
0	65	21.396082781794	14
0	69	22.612633138502	15
0	73	23.936774142625	16
0	81	25.159095528143	17
0	85	26.772158989989	18
0	87	27.871439341529	19
0	91	29.841248410129	20
0	95	31.012157996259	21
0	99	32.762844135127	22
0	103	34.087891362681	23
0	107	35.722165415836	24
0	111	37.374955734778	25
0	115	39.370255300384	26
0	119	40.784623888396	27
0	121	42.408133994397	28
0	123	43.746141611906	29
0	127	45.420893934164	30
0	129	47.199239415889	31
0	135	49.148810467291	32
0	139	50.771656560553	33
0	143	52.743601559503	34
0	147	54.253225931274	35
0	151	55.704385145176	36
0	155	57.146096066646	37
0	159	58.505540535627	38
0	163	60.194201721884	39
0	165	62.112437194753	40
0	169	63.32925932792	41
0	173	65.194361891905	42
0	175	67.111084848484	43
0	183	69.032242460484	44
0	185	70.874584539635	45
0	189	72.521758678211	46
0	191	73.786488842527	47
0	195	75.184309594175	48
0	199	76.34925005476	49
0	203	77.495691818027	50
0	209	79.199429098824	51
0	213	80.955535790259	52
0	217	82.851574179558	53
0	221	84.743128610384	54
0	225	86.192326342296	55
0	235	87.308528252253	56
0	239	88.621746584382	57
0	243	90.210211667772	58
0	247	91.743417919455	59
0	251	93.13828721161	60
0	253	94.613154733162	61
0	257	96.083286921568	62
0	261	97.3712779254	63
0	265	99.120447761454	64
0	269	100.223311121418	65
0	273	101.577357785852	66
0	277	102.610982879606	67
0	285	103.931980123353	68
0	293	105.91602235877	69
0	301	107.015591443591	70
0	305	108.920239187852	71
0	309	110.428554638131	72
0	317	112.207605656311	73
0	319	113.240828042692	74
0	323	115.223402999416	75
0	333	116.643478367087	76
0	339	118.408390065032	77
0	343	119.747793881065	78
0	345	121.086778997519	79
0	347	122.266269265517	80
0	351	123.437255858287	81
0	359	125.311828820344	82
0	361	127.095473068377	83
0	365	128.595499362174	84
0	373	130.294597439777	85
0	381	132.158878882259	86
0	385	133.371269384242	87
0	393	134.590018752107	88
0	397	136.270563446294	89
0	401	137.326981780894	90
0	405	139.207986339537	91
0	407	140.825644258719	92
0	409	142.368143035641	93
0	411	144.22275661871	94
0	415	145.966591161053	95
0	423	147.643672737369	96
0	427	149.099687360769	97
0	429	150.236907781644	98
0	433	151.466127104668	99
0	437	153.370552081924	100
0	441	154.695235054551	101
0	445	155.695290404914	102
0	449	157.120741942275	103
0	453	158.800621397171	104
0	461	160.284030014725	105
0	465	161.597722412163	106
0	467	163.069473987987	107
0	471	164.781057809556	108
0	475	166.511499990087	109
0	479	167.726380726632	110
0	483	169.533960991616	111
0	487	171.208808336717	112
0	491	172.383717208945	113
0	495	173.846867405421	114
0	497	175.051733166988	115
0	501	176.216692038423	116
0	511	177.938772699174	117
0	515	179.688027115848	118
0	519	180.733641751885	119
0	523	182.020556797349	120
0	525	183.083595089923	121
0	529	184.639244327165	122
0	533	186.472282421851	123
0	537	188.175777207205	124
0	545	189.688170672703	125
0	549	190.906573520816	126
0	557	192.785443259711	127
0	561	194.493991408572	128
0	565	196.338541486375	129
0	567	198.111867501242	130
1	3	0.142870607559	0
1	7	1.735908822369	1
1	11	3.579916083313	2
1	15	5.199212344764	3
1	23	6.502701929	4
1	27	8.326415522436	5
1	35	12.718186360431	6
1	45	14.062275842718	7
1	51	15.864560162955	8
1	55	17.590683249394	9
1	59	19.120259777844	10
1	63	20.233103339097	11
1	67	21.407535562067	12
1	71	22.624254503396	13
1	75	23.951659713118	14
1	83	25.19235903876	15
1	89	27.892027682844	16
1	93	29.855682450415	17
1	97	31.031518611857	18
1	101	32.773235966691	19
1	105	34.129820829102	20
1	109	35.74224560829	21
1	113	37.393674893314	22
1	117	39.3866931104	23
1	125	43.75995717034	24
1	131	47.220102109698	25
1	137	49.170008610949	26
1	141	50.802709773561	27
1	145	52.754174828767	28
1	149	54.263427832555	29
1	153	55.753300846404	30
1	157	57.16265252949	31
1	161	58.536782907597	32
1	167	62.130765629914	33
1	171	63.346371807292	34
1	177	67.121952553307	35
1	187	70.90299736435	36
1	193	73.804536816525	37
1	197	75.198926903135	38
1	201	76.367680885081	39
1	205	77.509095285409	40
1	211	79.21447253689	41
1	215	80.975722377559	42
1	219	82.872970259193	43
1	223	84.791558676216	44
1	227	86.216894527882	45
1	237	87.352171956784	46
1	241	88.642524933223	47
1	245	90.222832240189	48
1	249	91.76306245511	49
1	255	94.635745168335	50
1	259	96.098123278434	51
1	263	97.40235240145	52
1	267	99.131416989	53
1	271	100.241336641276	54
1	275	101.622083140645	55
1	279	102.623483694556	56
1	287	103.944995782485	57
1	295	105.930365815329	58
1	303	107.02597427272	59
1	307	108.932064573871	60
1	311	110.458574503086	61
1	321	113.255500768356	62
1	325	115.233922124938	63
1	335	116.682324484608	64
1	341	118.4251146702	65
1	349	122.282495238957	66
1	353	123.476101301171	67
1	363	127.105989897435	68
1	367	128.654290691054	69
1	375	130.318494210415	70
1	383	132.17139486839	71
1	387	133.389699171996	72
1	395	134.600910295007	73
1	399	136.287254583531	74
1	403	137.374448727032	75
1	413	144.239268926029	76
1	417	145.985931764379	77
1	425	147.677361919077	78
1	431	150.268243414519	79
1	435	151.486505605423	80
1	439	153.387885758656	81
1	443	154.708972687489	82
1	447	155.726948041723	83
1	451	157.136832388402	84
1	455	158.826168026549	85
1	463	160.325600970139	86
1	469	163.081142734399	87
1	473	164.801449865922	88
1	477	166.523563570023	89
1	481	167.75012752617	90
1	485	169.547202982751	91
1	489	171.230998330169	92
1	493	172.412069842974	93
1	499	175.063066573221	94
1	503	176.227001301339	95
1	513	177.961928961757	96
1	517	179.700373674341	97
1	521	180.754950936677	98
1	527	183.093687920167	99
1	531	184.690804038121	100
1	535	186.484286843802	101
1	539	188.19446286452	102
1	547	189.704243465589	103
1	551	190.923351540837	104
1	559	192.802337605089	105
1	563	194.506152370738	106
1	569	198.141694990288	107
2	17	5.212395906172	0
2	37	12.729698668968	1
2	47	14.083635232135	2
2	77	23.98494884686	3
2	133	47.230238755482	4
2	179	67.135205957462	5
2	207	77.524774326944	6
2	229	86.232201752848	7
2	281	102.635006630809	8
2	289	103.96269655108	9
2	297	105.946700441506	10
2	313	110.473874531867	11
2	327	115.248471243386	12
2	337	116.706187398128	13
2	355	123.495472688348	14
2	369	128.667400369104	15
2	377	130.361873553754	16
2	389	133.405715961861	17
2	419	146.00847379708	18
2	457	158.838774427843	19
2	505	176.250744731483	20
2	541	188.219952981312	21
2	553	190.945923910793	22
3	19	5.228890369655	0
3	39	12.760107591127	1
3	79	24.000926307628	2
3	181	67.145299964969	3
3	231	86.253454573016	4
3	283	102.646029836958	5
3	291	103.978637286063	6
3	299	105.975097769357	7
3	315	110.485382441969	8
3	329	115.258638921046	9
3	357	123.514552328621	10
3	371	128.688766334057	11
3	379	130.379953354288	12
3	391	133.450860748666	13
3	421	146.024813097274	14
3	459	158.870001894382	15
3	507	176.261716408267	16
3	543	188.239279099865	17
3	555	190.962582335659	18
4	41	12.776524682854	0
4	233	86.266328677777	1
4	331	115.271262214138	2
4	509	176.274168389193	3
5	42	12.786524682854	0
5	234	86.276328677777	1

