version 2
run General-1-20231004-18:49:14-10432
attr configname General
attr datetime 20231004-18:49:14
attr experiment General
attr inifile omnetpp.ini
attr iterationvars ""
attr iterationvarsf ""
attr measurement ""
attr network Multihop
attr processid 10432
attr repetition 1
attr replication #1
attr resultdir results
attr runnumber 1
attr seedset 1
param Multihop.node[*].transmissionTime "uniform(1s, 2s)"
param Multihop.node[*].delayTime "uniform(0.01s, 0.2s)"
param Multihop.node[*].processingTime exponential(0.01s)
param Multihop.node[0].lossProbability 0
param Multihop.node[1].lossProbability 0.2
param Multihop.node[2].lossProbability 0.7
param Multihop.node[3].lossProbability 0.3
param Multihop.node[4].lossProbability 0.8
param Multihop.node[5].lossProbability 0.5

vector 0 Multihop.node[0] txVector ETV
vector 1 Multihop.node[1] txVector ETV
vector 2 Multihop.node[2] txVector ETV
vector 3 Multihop.node[3] txVector ETV
vector 4 Multihop.node[4] txVector ETV
vector 5 Multihop.node[5] rxVector ETV
0	1	0.089234179703	0
0	5	2.086418987836	1
0	9	3.214543435608	2
0	11	4.450632411872	3
0	13	5.847213138013	4
0	17	7.23512387823	5
0	21	9.170662950842	6
0	25	10.483936463833	7
0	29	11.927389357589	8
0	33	13.4618032648	9
0	37	14.91900807398	10
0	39	16.858135868913	11
0	47	18.636525104406	12
0	53	20.154677652639	13
0	55	21.98428101733	14
0	57	23.257330994705	15
0	61	24.316574191792	16
0	69	25.909639708582	17
0	73	27.199269352365	18
0	77	28.982583824895	19
0	85	30.016755134916	20
0	89	31.462889635587	21
0	95	32.536253809813	22
0	99	34.439623981133	23
0	101	35.964423364146	24
0	105	37.048046369456	25
0	109	38.958494749271	26
0	111	40.542883873104	27
0	115	42.108795901646	28
0	119	44.065331560445	29
0	121	45.296346981895	30
0	125	46.82979547477	31
0	129	48.322855068256	32
0	133	50.088340175456	33
0	143	51.228306295701	34
0	145	52.676286478645	35
0	149	54.568422347192	36
0	151	56.10684704187	37
0	155	57.75914592005	38
0	163	59.33015448216	39
0	167	60.977903877968	40
0	177	62.741136935191	41
0	181	64.239246004611	42
0	185	66.026197478525	43
0	189	67.381507841754	44
0	197	68.761311131879	45
0	201	70.534050275223	46
0	211	72.112684207154	47
0	213	73.580076892511	48
0	217	74.849077942199	49
0	221	76.400402880856	50
0	223	77.872877922259	51
0	227	79.615642749356	52
0	229	81.079954256887	53
0	237	82.310317061028	54
0	239	83.829178936432	55
0	241	85.001457293403	56
0	243	86.397770581652	57
0	245	87.505135889981	58
0	253	89.014946168173	59
0	257	90.98261409381	60
0	261	92.216236621491	61
0	265	93.78630327934	62
0	267	95.154146519839	63
0	271	96.967141491478	64
0	275	98.684533093474	65
0	283	100.111442917143	66
0	285	101.473347366671	67
0	287	102.626685850671	68
0	289	104.563876176602	69
0	291	106.480286049773	70
0	299	108.262244512443	71
0	301	109.392014125245	72
0	305	110.686373597127	73
0	309	111.961018750327	74
0	313	113.113155907601	75
0	321	115.051867605535	76
0	325	116.350547848385	77
0	329	118.332304483395	78
0	331	120.091653282637	79
0	333	121.742773848003	80
0	337	122.782457349938	81
0	341	124.545030487585	82
0	345	126.076856933884	83
0	349	127.222889677506	84
0	353	128.438539952856	85
0	357	129.900692467696	86
0	361	131.664934080212	87
0	367	132.739192514333	88
0	373	134.095656196239	89
0	377	136.026669124725	90
0	381	137.866314336077	91
0	383	139.190831836431	92
0	393	140.918843476685	93
0	397	142.345654320555	94
0	407	144.101989710821	95
0	411	146.028340421967	96
0	415	147.195292014513	97
0	425	148.647293621093	98
0	427	150.001870854875	99
0	429	151.080390824355	100
0	433	152.773576022476	101
0	439	154.23312130326	102
0	441	155.705204728875	103
0	445	156.8105959791	104
0	449	158.696285840008	105
0	453	159.977762605646	106
0	461	161.874042854295	107
0	467	163.304010750842	108
0	471	164.430536909145	109
0	473	165.744147739489	110
0	477	167.69697886391	111
0	481	168.945679063792	112
0	485	170.180947390501	113
0	487	171.724844627431	114
0	491	172.916104897507	115
0	493	173.964241692912	116
0	497	174.980114672681	117
0	501	176.379529964061	118
0	505	178.247047418844	119
0	509	179.501750166178	120
0	513	180.659506162511	121
0	517	182.076888956012	122
0	525	183.776772986281	123
0	533	185.566172827616	124
0	537	187.033550132414	125
0	541	188.273767765028	126
0	545	189.805435871588	127
0	553	191.366894830367	128
0	557	192.640795155311	129
0	565	193.86066145345	130
0	569	195.378255440736	131
0	573	196.677055664709	132
0	577	198.536939234123	133
0	581	199.620485580875	134
1	3	0.126198958082	0
1	7	2.165910130709	1
1	15	5.868292071471	2
1	19	7.263852114899	3
1	23	9.188097847749	4
1	27	10.496544622332	5
1	31	11.961919022391	6
1	35	13.477436717113	7
1	41	16.880722641025	8
1	49	18.666551409177	9
1	59	23.278433635014	10
1	63	24.33771106807	11
1	71	25.921172620626	12
1	75	27.21458880391	13
1	79	29.002366283711	14
1	87	30.029267023471	15
1	91	31.479224061166	16
1	97	32.547526355133	17
1	103	35.999295818093	18
1	107	37.061597846433	19
1	113	40.562401454356	20
1	117	42.121820190811	21
1	123	45.336291938997	22
1	127	46.847573825725	23
1	131	48.333319128454	24
1	135	50.114061769144	25
1	147	52.691027950186	26
1	153	56.121329635824	27
1	157	57.779302514577	28
1	165	59.344523097105	29
1	169	60.99231270338	30
1	179	62.751903499785	31
1	183	64.249908121967	32
1	187	66.064642528204	33
1	191	67.405901421008	34
1	199	68.772970849214	35
1	203	70.544140763351	36
1	215	73.60789652398	37
1	219	74.859804525453	38
1	225	77.885009310865	39
1	231	81.097052055029	40
1	247	87.51621324813	41
1	255	89.028207886652	42
1	259	90.993574318988	43
1	263	92.231648207654	44
1	269	95.167568043242	45
1	273	96.986633456092	46
1	277	98.708471237909	47
1	293	106.499865746927	48
1	303	109.406489734926	49
1	307	110.69714207278	50
1	311	111.972781570995	51
1	315	113.127794276752	52
1	323	115.064153666526	53
1	327	116.382899095431	54
1	335	121.76958728905	55
1	339	122.79853222906	56
1	343	124.556188368571	57
1	347	126.093965743646	58
1	351	127.257712024065	59
1	355	128.449958668175	60
1	359	129.913084354772	61
1	363	131.675936917173	62
1	369	132.750194119498	63
1	375	134.1142502027	64
1	379	136.046431977041	65
1	385	139.208228704343	66
1	395	140.941883522363	67
1	399	142.360722843782	68
1	409	144.115478359565	69
1	413	146.038584390189	70
1	417	147.221812272086	71
1	431	151.090518765992	72
1	435	152.8160996395	73
1	443	155.722197908881	74
1	447	156.828239776184	75
1	451	158.710664452732	76
1	455	159.990526587224	77
1	463	161.888293746031	78
1	469	163.343976738761	79
1	475	165.756611774719	80
1	479	167.726915304884	81
1	483	168.972558468296	82
1	489	171.743732354335	83
1	495	173.974751584372	84
1	499	174.998716233582	85
1	503	176.404955340741	86
1	507	178.257905774892	87
1	511	179.514100972343	88
1	515	180.673778516463	89
1	519	182.098846009942	90
1	527	183.809851832098	91
1	535	185.580632827087	92
1	539	187.043784545857	93
1	543	188.28516262409	94
1	547	189.817273066508	95
1	555	191.376995330972	96
1	559	192.651119934956	97
1	567	193.870827451266	98
1	571	195.396036383028	99
1	575	196.689102738952	100
1	579	198.547392056486	101
1	583	199.630680658848	102
2	43	16.906955854617	0
2	51	18.694220921363	1
2	65	24.353017744531	2
2	81	29.023173095611	3
2	93	31.490235226053	4
2	137	50.124364313594	5
2	159	57.790652867014	6
2	171	61.016287807656	7
2	193	67.430667769907	8
2	205	70.566486544825	9
2	233	81.109391172086	10
2	249	87.529620108811	11
2	279	98.724054125713	12
2	295	106.510232380917	13
2	317	113.138307400061	14
2	365	131.68770674166	15
2	371	132.761740362497	16
2	387	139.231577550646	17
2	401	142.396652232157	18
2	419	147.236406895591	19
2	437	152.83016707706	20
2	457	160.000768326648	21
2	465	161.906899176045	22
2	521	182.10962264086	23
2	529	183.819898574298	24
2	549	189.832738885739	25
2	561	192.688433972457	26
3	45	16.917929787008	0
3	67	24.365218612978	1
3	83	29.036718372385	2
3	139	50.155830856863	3
3	161	57.812371298673	4
3	173	61.047602891974	5
3	195	67.44425397398	6
3	207	70.582847425526	7
3	235	81.119896783981	8
3	251	87.542256619756	9
3	281	98.739646976306	10
3	297	106.530854907898	11
3	319	113.161814956443	12
3	389	139.243385650997	13
3	403	142.408927643192	14
3	421	147.255802668	15
3	459	160.044502243797	16
3	523	182.11999415432	17
3	531	183.832966588567	18
3	551	189.854280809364	19
3	563	192.713670796596	20
4	141	50.173613294055	0
4	175	61.057720270111	1
4	209	70.60731180076	2
4	391	139.265003034638	3
4	405	142.419007992235	4
4	423	147.266157361914	5
5	176	61.067720270111	0
5	210	70.61731180076	1
5	406	142.429007992235	2

