version 2
run General-2-20231004-18:49:14-10432
attr configname General
attr datetime 20231004-18:49:14
attr experiment General
attr inifile omnetpp.ini
attr iterationvars ""
attr iterationvarsf ""
attr measurement ""
attr network Multihop
attr processid 10432
attr repetition 2
attr replication #2
attr resultdir results
attr runnumber 2
attr seedset 2
param Multihop.node[*].transmissionTime "uniform(1s, 2s)"
param Multihop.node[*].delayTime "uniform(0.01s, 0.2s)"
param Multihop.node[*].processingTime exponential(0.01s)
param Multihop.node[0].lossProbability 0
param Multihop.node[1].lossProbability 0.2
param Multihop.node[2].lossProbability 0.7
param Multihop.node[3].lossProbability 0.3
param Multihop.node[4].lossProbability 0.8
param Multihop.node[5].lossProbability 0.5

vector 0 Multihop.node[0] txVector ETV
vector 1 Multihop.node[1] txVector ETV
vector 2 Multihop.node[2] txVector ETV
vector 3 Multihop.node[3] txVector ETV
vector 4 Multihop.node[4] txVector ETV
vector 5 Multihop.node[5] rxVector ETV
0	1	0.092839031499	0
0	3	1.277921112972	1
0	7	3.20946197656	2
0	11	4.694211072773	3
0	15	5.848637748296	4
0	19	6.968588292152	5
0	23	8.601326022782	6
0	25	10.284352017819	7
0	29	11.782913185443	8
0	39	13.502667416373	9
0	43	15.472299824023	10
0	47	16.760168643921	11
0	49	17.94189568122	12
0	53	19.436185449148	13
0	55	20.658020616295	14
0	59	22.425511792787	15
0	63	23.593335107221	16
0	67	25.062008689643	17
0	71	26.855098432648	18
0	75	28.468128126367	19
0	77	29.587612925583	20
0	87	30.736177705947	21
0	91	32.051475187085	22
0	101	33.86065047213	23
0	103	35.674788889029	24
0	111	37.622879312393	25
0	115	39.369510725393	26
0	123	41.257814471862	27
0	127	42.964356473899	28
0	131	44.924670203841	29
0	135	46.247544420902	30
0	139	48.180172981713	31
0	143	49.697603742844	32
0	147	51.251237588721	33
0	155	52.645170880035	34
0	159	54.000924503915	35
0	163	55.362951910608	36
0	167	56.726277801926	37
0	171	58.493766060584	38
0	175	60.320134066297	39
0	179	61.950976722427	40
0	183	63.332669660934	41
0	187	64.979683886767	42
0	191	66.78313601601	43
0	195	68.662338046376	44
0	197	70.448510292238	45
0	203	71.980654733042	46
0	211	73.457498139255	47
0	219	74.826105680801	48
0	227	76.380645154296	49
0	235	78.298363876083	50
0	239	80.136194424025	51
0	243	81.457513007588	52
0	247	82.734952222809	53
0	249	84.198694830781	54
0	253	86.050983791027	55
0	257	87.051107375204	56
0	259	88.226223764263	57
0	261	89.741082931423	58
0	265	91.621073282577	59
0	269	93.150894458426	60
0	277	94.177278604612	61
0	281	95.682690239765	62
0	283	96.844385672614	63
0	287	98.063675645527	64
0	291	99.784023669569	65
0	295	101.40729600263	66
0	301	103.220077954253	67
0	303	104.236188219415	68
0	307	106.171223947333	69
0	309	108.081879464231	70
0	311	109.901344839736	71
0	313	110.991715217727	72
0	317	112.349955525501	73
0	319	113.79998224766	74
0	323	114.830350499619	75
0	327	115.832933074115	76
0	335	117.420107275499	77
0	339	119.293234615605	78
0	343	121.037096645701	79
0	345	122.360779848201	80
0	347	124.096131242364	81
0	355	125.281720978459	82
0	363	126.292521901214	83
0	373	127.969661644212	84
0	377	129.706262181531	85
0	379	130.871129323979	86
0	383	132.698582674394	87
0	387	134.052755096945	88
0	391	135.084559974278	89
0	395	136.712741192913	90
0	403	138.482478161127	91
0	407	140.447258815885	92
0	411	141.873233565612	93
0	415	143.41241617712	94
0	425	145.195049195101	95
0	429	146.613956507312	96
0	437	147.711504577909	97
0	443	148.83672314721	98
0	449	150.593727786809	99
0	451	151.863905546738	100
0	455	153.730085788544	101
0	463	155.48609879568	102
0	467	156.526518582616	103
0	471	158.12506496419	104
0	475	159.299507787701	105
0	483	160.312744821439	106
0	487	162.277141720307	107
0	491	164.02217998078	108
0	495	165.673272170843	109
0	501	166.896374786058	110
0	505	168.072019472271	111
0	507	169.797649550969	112
0	511	171.188623813	113
0	513	172.923309121533	114
0	515	174.89686043772	115
0	517	176.139197940725	116
0	521	177.345816691891	117
0	523	179.063751508967	118
0	527	180.915423782795	119
0	529	182.278718428706	120
0	537	183.615011399632	121
0	541	185.133536430794	122
0	545	186.296875700607	123
0	549	187.514783022014	124
0	553	188.615458679406	125
0	561	190.204555789262	126
0	571	191.736940695226	127
0	573	192.755470288705	128
0	577	193.963511905653	129
0	579	195.017002080122	130
0	587	196.449135180816	131
0	591	197.65335770745	132
0	595	199.344217756551	133
1	5	1.317434556699	0
1	9	3.22332649325	1
1	13	4.716212962139	2
1	17	5.865277048485	3
1	21	6.995638243093	4
1	27	10.303190180123	5
1	31	11.795903960743	6
1	41	13.516191661413	7
1	45	15.483534993334	8
1	51	17.960237378389	9
1	57	20.67663173293	10
1	61	22.440092090717	11
1	65	23.613955968345	12
1	69	25.082887246992	13
1	73	26.912040629323	14
1	79	29.616737362407	15
1	89	30.749171652201	16
1	93	32.065839720919	17
1	105	35.702098428824	18
1	113	37.638527516452	19
1	117	39.407845720729	20
1	125	41.274373405003	21
1	129	42.97990812519	22
1	133	44.949022109103	23
1	137	46.269965226623	24
1	141	48.211755370566	25
1	145	49.716128513633	26
1	149	51.287348649812	27
1	157	52.657565302119	28
1	161	54.031986490427	29
1	165	55.379947727325	30
1	169	56.760867334269	31
1	173	58.509072032591	32
1	177	60.33431822648	33
1	181	61.993800091858	34
1	185	63.374333840076	35
1	189	64.992289563094	36
1	193	66.802113070227	37
1	199	70.493021704619	38
1	205	71.996121651111	39
1	213	73.469929132725	40
1	221	74.85865751961	41
1	229	76.391053491274	42
1	237	78.31605236611	43
1	241	80.151257017879	44
1	245	81.495040561612	45
1	251	84.211087145627	46
1	255	86.061958775676	47
1	263	89.766444430607	48
1	267	91.634273102266	49
1	271	93.181274278037	50
1	279	94.191359710619	51
1	285	96.872496175151	52
1	289	98.074204255913	53
1	293	99.797396164479	54
1	297	101.425189779938	55
1	305	104.251140788557	56
1	315	111.001906894322	57
1	321	113.813134205181	58
1	325	114.846037623505	59
1	329	115.891196542211	60
1	337	117.436744203342	61
1	341	119.317266211532	62
1	349	124.107547935184	63
1	357	125.310590167249	64
1	365	126.324222340723	65
1	375	127.986115485762	66
1	381	130.888888044675	67
1	385	132.727034130271	68
1	389	134.06345648121	69
1	393	135.104637005972	70
1	397	136.728564205552	71
1	405	138.507633169275	72
1	409	140.461506796025	73
1	413	141.888876074063	74
1	417	143.433422134674	75
1	427	145.205759850857	76
1	431	146.626522168447	77
1	439	147.722276205253	78
1	445	148.851985918509	79
1	453	151.910401890368	80
1	457	153.76954061866	81
1	465	155.50112760268	82
1	469	156.538149496662	83
1	473	158.136674592963	84
1	477	159.309523206936	85
1	485	160.32476214479	86
1	489	162.291291774095	87
1	493	164.04242755706	88
1	497	165.697145250116	89
1	503	166.909318687698	90
1	509	169.812536661613	91
1	519	176.154721526463	92
1	525	179.078070475715	93
1	531	182.293930192656	94
1	539	183.646511901551	95
1	543	185.156558277144	96
1	547	186.324891729414	97
1	551	187.529331861309	98
1	555	188.631820583968	99
1	563	190.219710736634	100
1	575	192.765700074516	101
1	581	195.030391169712	102
1	589	196.461365318676	103
1	593	197.666228792326	104
2	33	11.813805109037	0
2	81	29.633861190041	1
2	95	32.082147878569	2
2	107	35.719337361607	3
2	119	39.424837619739	4
2	151	51.297404248296	5
2	201	70.511577272548	6
2	207	72.015259090202	7
2	215	73.496390729556	8
2	223	74.895127997395	9
2	231	76.414251911284	10
2	273	93.194496155613	11
2	299	101.43537416988	12
2	331	115.906915060115	13
2	351	124.117648154768	14
2	359	125.323376291036	15
2	367	126.335889567366	16
2	399	136.758116524032	17
2	419	143.45521880302	18
2	433	146.656256973277	19
2	441	147.736219176281	20
2	447	148.876112313525	21
2	459	153.78156526684	22
2	479	159.319944655596	23
2	499	165.713198047427	24
2	533	182.3045522196	25
2	557	188.646375858197	26
2	565	190.230131943666	27
2	583	195.04308811418	28
3	35	11.829035910289	0
3	83	29.646310863717	1
3	97	32.095352317907	2
3	109	35.731834780247	3
3	121	39.446945648398	4
3	153	51.320442124532	5
3	209	72.026385991472	6
3	217	73.522396531566	7
3	225	74.943129858329	8
3	233	76.446921569508	9
3	275	93.206065154331	10
3	333	115.921415931098	11
3	353	124.132316896957	12
3	361	125.344771485597	13
3	369	126.375206654383	14
3	401	136.772923733824	15
3	421	143.469432307596	16
3	435	146.669553965398	17
3	461	153.835230623736	18
3	481	159.335489631458	19
3	535	182.315931571882	20
3	559	188.691625708979	21
3	567	190.243415694942	22
3	585	195.066071985618	23
4	37	11.840983714242	0
4	85	29.706317156805	1
4	99	32.121357118889	2
4	371	126.388684425627	3
4	423	143.488007314901	4
4	569	190.264398441374	5
5	100	32.131357118889	0
5	570	190.274398441374	1

