version 2
run General-3-20231008-09:10:41-18810
attr configname General
attr datetime 20231008-09:10:41
attr experiment General
attr inifile omnetpp.ini
attr iterationvars ""
attr iterationvarsf ""
attr measurement ""
attr network Network3
attr processid 18810
attr repetition 3
attr replication #3
attr resultdir results
attr runnumber 3
attr seedset 3
param Network3.node[*].transmissionTime "uniform(1s, 2s)"
param Network3.node[*].delayTime "uniform(0.01s, 0.2s)"
param Network3.node[*].processingTime exponential(0.01s)
param Network3.node[0].lossProbability 0
param Network3.node[1].lossProbability 0.25
param Network3.node[2].lossProbability 0.25
param Network3.node[3].lossProbability "0.25 / 2"
param Network3.node[4].lossProbability "0.25 / 2"
param Network3.node[6].lossProbability "0.25 * 2"
param Network3.node[7].lossProbability "0.25 * 2"
param Network3.node[5].lossProbability "0.25 * 3"

vector 0 Network3.node[0] txVector ETV
vector 1 Network3.node[2] txVector ETV
vector 2 Network3.node[1] txVector ETV
vector 3 Network3.node[4] txVector ETV
vector 4 Network3.node[3] txVector ETV
vector 5 Network3.node[6] txVector ETV
vector 6 Network3.node[7] txVector ETV
vector 7 Network3.node[5] rxVector ETV
0	1	0.114651601831	0
0	1	0.114651601831	1
0	15	1.185376482154	2
0	15	1.185376482154	3
0	18	2.433264783886	4
0	18	2.433264783886	5
0	43	3.87407462236	6
0	43	3.87407462236	7
0	68	5.460694594379	8
0	68	5.460694594379	9
0	93	6.838688639761	10
0	93	6.838688639761	11
0	107	8.709760690411	12
0	107	8.709760690411	13
0	129	10.402394437534	14
0	129	10.402394437534	15
0	148	11.923998774332	16
0	148	11.923998774332	17
0	151	13.520662551816	18
0	151	13.520662551816	19
0	161	15.446395336255	20
0	161	15.446395336255	21
0	183	17.198535366287	22
0	183	17.198535366287	23
0	204	18.999138877099	24
0	204	18.999138877099	25
0	226	20.784075576417	26
0	226	20.784075576417	27
0	251	21.961288961187	28
0	251	21.961288961187	29
0	273	23.956732136035	30
0	273	23.956732136035	31
0	295	25.42739811733	32
0	295	25.42739811733	33
0	320	26.522279451206	34
0	320	26.522279451206	35
0	345	28.350142255496	36
0	345	28.350142255496	37
0	367	29.58160328616	38
0	367	29.58160328616	39
0	392	31.30175451988	40
0	392	31.30175451988	41
0	406	32.780669965852	42
0	406	32.780669965852	43
0	409	33.85623636942	44
0	409	33.85623636942	45
0	431	35.84915992648	46
0	431	35.84915992648	47
0	434	36.880089122873	48
0	434	36.880089122873	49
0	437	38.35959643412	50
0	437	38.35959643412	51
0	462	39.634233903676	52
0	462	39.634233903676	53
0	487	40.768452072354	54
0	487	40.768452072354	55
0	490	42.352382164985	56
0	490	42.352382164985	57
0	515	43.598917632435	58
0	515	43.598917632435	59
0	537	45.005194817508	60
0	537	45.005194817508	61
0	559	46.058169837879	62
0	559	46.058169837879	63
0	584	47.972550276738	64
0	584	47.972550276738	65
0	606	49.145775282827	66
0	606	49.145775282827	67
0	627	50.722750177911	68
0	627	50.722750177911	69
0	652	51.776757163998	70
0	652	51.776757163998	71
0	674	53.400582247485	72
0	674	53.400582247485	73
0	695	55.147253341811	74
0	695	55.147253341811	75
0	706	56.560872331333	76
0	706	56.560872331333	77
0	731	58.287040328213	78
0	731	58.287040328213	79
0	734	59.768204070234	80
0	734	59.768204070234	81
0	756	61.09626981274	82
0	756	61.09626981274	83
0	777	62.851799287673	84
0	777	62.851799287673	85
0	802	64.554676895801	86
0	802	64.554676895801	87
0	827	66.228036539702	88
0	827	66.228036539702	89
0	849	67.317629001409	90
0	849	67.317629001409	91
0	871	68.357423154477	92
0	871	68.357423154477	93
0	896	69.716832557766	94
0	896	69.716832557766	95
0	918	71.648693892712	96
0	918	71.648693892712	97
0	921	72.75545883023	98
0	921	72.75545883023	99
0	942	74.067008166647	100
0	942	74.067008166647	101
0	967	75.695322585365	102
0	967	75.695322585365	103
0	989	76.797799352396	104
0	989	76.797799352396	105
0	1014	78.066776136707	106
0	1014	78.066776136707	107
0	1039	79.683011499771	108
0	1039	79.683011499771	109
0	1060	81.121046335741	110
0	1060	81.121046335741	111
0	1070	82.612710233617	112
0	1070	82.612710233617	113
0	1088	84.006251681202	114
0	1088	84.006251681202	115
0	1109	85.715591699655	116
0	1109	85.715591699655	117
0	1112	87.182257862367	118
0	1112	87.182257862367	119
0	1134	88.627258654755	120
0	1134	88.627258654755	121
0	1159	89.889510957828	122
0	1159	89.889510957828	123
0	1165	91.854229042378	124
0	1165	91.854229042378	125
0	1187	93.397226712039	126
0	1187	93.397226712039	127
0	1205	94.923886923889	128
0	1205	94.923886923889	129
0	1223	96.793352589082	130
0	1223	96.793352589082	131
0	1248	98.111151035015	132
0	1248	98.111151035015	133
0	1273	99.568134118408	134
0	1273	99.568134118408	135
0	1295	101.007586295322	136
0	1295	101.007586295322	137
0	1320	102.114666906955	138
0	1320	102.114666906955	139
0	1342	103.52280897631	140
0	1342	103.52280897631	141
0	1356	105.317908406096	142
0	1356	105.317908406096	143
0	1374	106.769335785486	144
0	1374	106.769335785486	145
0	1399	108.678789917218	146
0	1399	108.678789917218	147
0	1424	110.338206115483	148
0	1424	110.338206115483	149
0	1443	111.656554706	150
0	1443	111.656554706	151
0	1465	112.780634221925	152
0	1465	112.780634221925	153
0	1483	114.676912640758	154
0	1483	114.676912640758	155
0	1508	116.16230005941	156
0	1508	116.16230005941	157
0	1514	117.700023575757	158
0	1514	117.700023575757	159
0	1539	119.43303727063	160
0	1539	119.43303727063	161
0	1557	120.930300132675	162
0	1557	120.930300132675	163
0	1579	122.880237774063	164
0	1579	122.880237774063	165
0	1593	124.196943647066	166
0	1593	124.196943647066	167
0	1615	125.338630800439	168
0	1615	125.338630800439	169
0	1640	126.696649045056	170
0	1640	126.696649045056	171
0	1665	128.048514157372	172
0	1665	128.048514157372	173
0	1687	129.258233058803	174
0	1687	129.258233058803	175
0	1705	131.060676870473	176
0	1705	131.060676870473	177
0	1727	132.395885596123	178
0	1727	132.395885596123	179
0	1748	133.72343740666	180
0	1748	133.72343740666	181
0	1751	134.92168582075	182
0	1751	134.92168582075	183
0	1773	136.37720346132	184
0	1773	136.37720346132	185
0	1798	137.713989250666	186
0	1798	137.713989250666	187
0	1808	139.638077807218	188
0	1808	139.638077807218	189
0	1833	141.631479416812	190
0	1833	141.631479416812	191
0	1858	143.417739179056	192
0	1858	143.417739179056	193
0	1883	144.864299972147	194
0	1883	144.864299972147	195
0	1908	146.138354396751	196
0	1908	146.138354396751	197
0	1933	147.881389972592	198
0	1933	147.881389972592	199
0	1955	149.406944729924	200
0	1955	149.406944729924	201
0	1980	150.766111582588	202
0	1980	150.766111582588	203
0	2002	152.670637242334	204
0	2002	152.670637242334	205
0	2012	154.006059702789	206
0	2012	154.006059702789	207
0	2034	155.385958048818	208
0	2034	155.385958048818	209
0	2059	156.461483803881	210
0	2059	156.461483803881	211
0	2081	158.410407812405	212
0	2081	158.410407812405	213
0	2103	159.941276111245	214
0	2103	159.941276111245	215
0	2124	161.103035750404	216
0	2124	161.103035750404	217
0	2146	162.370961674793	218
0	2146	162.370961674793	219
0	2171	163.42997775653	220
0	2171	163.42997775653	221
0	2192	164.942489037361	222
0	2192	164.942489037361	223
0	2214	166.681645953633	224
0	2214	166.681645953633	225
0	2236	168.308805753781	226
0	2236	168.308805753781	227
0	2261	170.029839345558	228
0	2261	170.029839345558	229
0	2283	171.421740789736	230
0	2283	171.421740789736	231
0	2308	173.229195104285	232
0	2308	173.229195104285	233
0	2330	174.915441013246	234
0	2330	174.915441013246	235
0	2355	176.578384460022	236
0	2355	176.578384460022	237
0	2369	178.359797953234	238
0	2369	178.359797953234	239
0	2391	179.448556095899	240
0	2391	179.448556095899	241
0	2412	181.197902078812	242
0	2412	181.197902078812	243
0	2437	182.667433029578	244
0	2437	182.667433029578	245
0	2459	184.091636048702	246
0	2459	184.091636048702	247
0	2480	185.326288247087	248
0	2480	185.326288247087	249
0	2502	186.846662086972	250
0	2502	186.846662086972	251
0	2523	188.369736783045	252
0	2523	188.369736783045	253
0	2542	190.204502943975	254
0	2542	190.204502943975	255
0	2567	192.042088222296	256
0	2567	192.042088222296	257
0	2581	193.115130808742	258
0	2581	193.115130808742	259
0	2606	194.557035453224	260
0	2606	194.557035453224	261
0	2609	195.626062325041	262
0	2609	195.626062325041	263
0	2627	196.766426227127	264
0	2627	196.766426227127	265
0	2652	198.462059395459	266
0	2652	198.462059395459	267
0	2674	199.850776711084	268
0	2674	199.850776711084	269
0	2696	201.052397156438	270
0	2696	201.052397156438	271
0	2714	202.724345984241	272
0	2714	202.724345984241	273
0	2736	203.923097530451	274
0	2736	203.923097530451	275
0	2761	205.692008649303	276
0	2761	205.692008649303	277
0	2782	207.567171870103	278
0	2782	207.567171870103	279
0	2807	209.14257569525	280
0	2807	209.14257569525	281
0	2829	210.327537665214	282
0	2829	210.327537665214	283
0	2850	212.064207858942	284
0	2850	212.064207858942	285
0	2872	213.294129661122	286
0	2872	213.294129661122	287
0	2897	215.291583968863	288
0	2897	215.291583968863	289
0	2915	217.172444483569	290
0	2915	217.172444483569	291
0	2940	218.594368522592	292
0	2940	218.594368522592	293
0	2943	219.944472065732	294
0	2943	219.944472065732	295
0	2958	221.583185968293	296
0	2958	221.583185968293	297
0	2969	223.087650145242	298
0	2969	223.087650145242	299
0	2994	224.349299883075	300
0	2994	224.349299883075	301
0	2997	226.343406563928	302
0	2997	226.343406563928	303
0	3022	227.39590881283	304
0	3022	227.39590881283	305
0	3044	229.359172944283	306
0	3044	229.359172944283	307
0	3062	231.321894185223	308
0	3062	231.321894185223	309
0	3065	233.20184047504	310
0	3065	233.20184047504	311
0	3090	234.900539212	312
0	3090	234.900539212	313
0	3112	236.290408020677	314
0	3112	236.290408020677	315
0	3137	237.298218597496	316
0	3137	237.298218597496	317
0	3162	238.997582880851	318
0	3162	238.997582880851	319
1	4	0.125945044446	0
1	4	0.125945044446	1
1	34	2.482225691171	2
1	34	2.482225691171	3
1	55	3.923973455185	4
1	55	3.923973455185	5
1	72	5.481290747835	6
1	72	5.481290747835	7
1	96	6.853374681501	8
1	96	6.853374681501	9
1	110	8.724260198134	10
1	110	8.724260198134	11
1	154	13.532881195829	12
1	154	13.532881195829	13
1	180	15.514721130076	14
1	180	15.514721130076	15
1	190	17.223351913783	16
1	190	17.223351913783	17
1	207	19.028175049037	18
1	207	19.028175049037	19
1	237	20.816368290061	20
1	237	20.816368290061	21
1	255	21.979210479545	22
1	255	21.979210479545	23
1	276	23.97088738025	24
1	276	23.97088738025	25
1	313	25.489133941059	26
1	313	25.489133941059	27
1	336	26.594889140507	28
1	336	26.594889140507	29
1	349	28.370444550936	30
1	349	28.370444550936	31
1	370	29.593101944212	32
1	370	29.593101944212	33
1	400	31.333317005246	34
1	400	31.333317005246	35
1	413	33.875825880415	36
1	413	33.875825880415	37
1	440	38.375787006204	38
1	440	38.375787006204	39
1	469	39.661096143702	40
1	469	39.661096143702	41
1	493	42.363017323098	42
1	493	42.363017323098	43
1	518	43.629088212634	44
1	518	43.629088212634	45
1	540	45.018097408758	46
1	540	45.018097408758	47
1	562	46.070472017437	48
1	562	46.070472017437	49
1	587	47.983902030452	50
1	587	47.983902030452	51
1	609	49.163609929238	52
1	609	49.163609929238	53
1	630	50.732771456141	54
1	630	50.732771456141	55
1	667	51.814498263945	56
1	667	51.814498263945	57
1	678	53.423738954277	58
1	678	53.423738954277	59
1	728	56.738224679438	60
1	728	56.738224679438	61
1	759	61.107924023646	62
1	759	61.107924023646	63
1	781	62.863495308774	64
1	781	62.863495308774	65
1	805	64.567630078171	66
1	805	64.567630078171	67
1	831	66.24711534679	68
1	831	66.24711534679	69
1	852	67.329312003838	70
1	852	67.329312003838	71
1	875	68.377026655891	72
1	875	68.377026655891	73
1	899	69.732435397657	74
1	899	69.732435397657	75
1	939	72.803744174287	76
1	939	72.803744174287	77
1	949	74.095476009194	78
1	949	74.095476009194	79
1	986	75.771423610382	80
1	986	75.771423610382	81
1	993	76.818133259117	82
1	993	76.818133259117	83
1	1026	78.101325878815	84
1	1026	78.101325878815	85
1	1042	79.696445455274	86
1	1042	79.696445455274	87
1	1063	81.168337318639	88
1	1063	81.168337318639	89
1	1077	82.659321346129	90
1	1077	82.659321346129	91
1	1091	84.022943802508	92
1	1091	84.022943802508	93
1	1137	88.640076067811	94
1	1137	88.640076067811	95
1	1162	89.90260602955	96
1	1162	89.90260602955	97
1	1177	91.907345465911	98
1	1177	91.907345465911	99
1	1202	93.480225559557	100
1	1202	93.480225559557	101
1	1208	94.943278790822	102
1	1208	94.943278790822	103
1	1226	96.815297072671	104
1	1226	96.815297072671	105
1	1251	98.128858379479	106
1	1251	98.128858379479	107
1	1276	99.582687323544	108
1	1276	99.582687323544	109
1	1298	101.019768925879	110
1	1298	101.019768925879	111
1	1323	102.135140325299	112
1	1323	102.135140325299	113
1	1350	103.551954809828	114
1	1350	103.551954809828	115
1	1359	105.333773026758	116
1	1359	105.333773026758	117
1	1381	106.796162552543	118
1	1381	106.796162552543	119
1	1402	108.689296165423	120
1	1402	108.689296165423	121
1	1469	112.798487531186	122
1	1469	112.798487531186	123
1	1486	114.686974469297	124
1	1486	114.686974469297	125
1	1511	116.204837436195	126
1	1511	116.204837436195	127
1	1517	117.718834041532	128
1	1517	117.718834041532	129
1	1542	119.450118499205	130
1	1542	119.450118499205	131
1	1561	120.957817365552	132
1	1561	120.957817365552	133
1	1596	124.211369799638	134
1	1596	124.211369799638	135
1	1622	125.360304135166	136
1	1622	125.360304135166	137
1	1643	126.714172231855	138
1	1643	126.714172231855	139
1	1668	128.071043237144	140
1	1668	128.071043237144	141
1	1690	129.268753749369	142
1	1690	129.268753749369	143
1	1708	131.070944740426	144
1	1708	131.070944740426	145
1	1731	132.417245927136	146
1	1731	132.417245927136	147
1	1770	134.994047205026	148
1	1770	134.994047205026	149
1	1776	136.392917353698	150
1	1776	136.392917353698	151
1	1801	137.724409589273	152
1	1801	137.724409589273	153
1	1820	139.729883353732	154
1	1820	139.729883353732	155
1	1841	141.663407085632	156
1	1841	141.663407085632	157
1	1862	143.435055587749	158
1	1862	143.435055587749	159
1	1887	144.881623456979	160
1	1887	144.881623456979	161
1	1911	146.155976261408	162
1	1911	146.155976261408	163
1	1949	147.92554437715	164
1	1949	147.92554437715	165
1	1972	149.447144262156	166
1	1972	149.447144262156	167
1	1983	150.788457126207	168
1	1983	150.788457126207	169
1	2005	152.691313934964	170
1	2005	152.691313934964	171
1	2015	154.020857285773	172
1	2015	154.020857285773	173
1	2037	155.398057748062	174
1	2037	155.398057748062	175
1	2063	156.489937076049	176
1	2063	156.489937076049	177
1	2089	158.449464174572	178
1	2089	158.449464174572	179
1	2107	159.967897593633	180
1	2107	159.967897593633	181
1	2128	161.123680105188	182
1	2128	161.123680105188	183
1	2150	162.392987901404	184
1	2150	162.392987901404	185
1	2174	163.446127751251	186
1	2174	163.446127751251	187
1	2196	164.960414860125	188
1	2196	164.960414860125	189
1	2217	166.698365539222	190
1	2217	166.698365539222	191
1	2239	168.320811397531	192
1	2239	168.320811397531	193
1	2265	170.045927842339	194
1	2265	170.045927842339	195
1	2287	171.440598469851	196
1	2287	171.440598469851	197
1	2311	173.240016956337	198
1	2311	173.240016956337	199
1	2341	174.957299683728	200
1	2341	174.957299683728	201
1	2359	176.601488168439	202
1	2359	176.601488168439	203
1	2372	178.372961381321	204
1	2372	178.372961381321	205
1	2394	179.50103749932	206
1	2394	179.50103749932	207
1	2419	181.219895428679	208
1	2419	181.219895428679	209
1	2441	182.692076130761	210
1	2441	182.692076130761	211
1	2462	184.104035873984	212
1	2462	184.104035873984	213
1	2514	186.880330866512	214
1	2514	186.880330866512	215
1	2545	190.22228745491	216
1	2545	190.22228745491	217
1	2570	192.054244450449	218
1	2570	192.054244450449	219
1	2584	193.127488929287	220
1	2584	193.127488929287	221
1	2616	195.650183954929	222
1	2616	195.650183954929	223
1	2630	196.777301261567	224
1	2630	196.777301261567	225
1	2671	198.524141195456	226
1	2671	198.524141195456	227
1	2677	199.864812571994	228
1	2677	199.864812571994	229
1	2699	201.064813725438	230
1	2699	201.064813725438	231
1	2717	202.746280542766	232
1	2717	202.746280542766	233
1	2747	203.974881253584	234
1	2747	203.974881253584	235
1	2764	205.709112650364	236
1	2764	205.709112650364	237
1	2785	207.578764442556	238
1	2785	207.578764442556	239
1	2810	209.157080170171	240
1	2810	209.157080170171	241
1	2832	210.338030191862	242
1	2832	210.338030191862	243
1	2853	212.081572437072	244
1	2853	212.081572437072	245
1	2875	213.311877598875	246
1	2875	213.311877598875	247
1	2912	215.344209219906	248
1	2912	215.344209219906	249
1	2919	217.188505968344	250
1	2919	217.188505968344	251
1	2972	223.122064797486	252
1	2972	223.122064797486	253
1	3000	226.354911025774	254
1	3000	226.354911025774	255
1	3047	229.375441972936	256
1	3047	229.375441972936	257
1	3069	233.220013679472	258
1	3069	233.220013679472	259
1	3093	234.917703976111	260
1	3093	234.917703976111	261
1	3115	236.303934114668	262
1	3115	236.303934114668	263
1	3141	237.315135399676	264
1	3141	237.315135399676	265
1	3165	239.01139547143	266
1	3165	239.01139547143	267
2	7	0.14297423212	0
2	7	0.14297423212	1
2	7	0.14297423212	2
2	21	2.443568099883	3
2	21	2.443568099883	4
2	21	2.443568099883	5
2	46	3.887289356697	6
2	46	3.887289356697	7
2	46	3.887289356697	8
2	71	5.471662093662	9
2	71	5.471662093662	10
2	71	5.471662093662	11
2	99	6.865360780266	12
2	99	6.865360780266	13
2	99	6.865360780266	14
2	111	8.725664799395	15
2	111	8.725664799395	16
2	111	8.725664799395	17
2	132	10.413932937159	18
2	132	10.413932937159	19
2	132	10.413932937159	20
2	164	15.457630768836	21
2	164	15.457630768836	22
2	164	15.457630768836	23
2	186	17.212842045081	24
2	186	17.212842045081	25
2	186	17.212842045081	26
2	211	19.04492957548	27
2	211	19.04492957548	28
2	211	19.04492957548	29
2	229	20.79484032359	30
2	229	20.79484032359	31
2	229	20.79484032359	32
2	254	21.975685320942	33
2	254	21.975685320942	34
2	254	21.975685320942	35
2	277	23.979022700777	36
2	277	23.979022700777	37
2	277	23.979022700777	38
2	298	25.442605176466	39
2	298	25.442605176466	40
2	298	25.442605176466	41
2	323	26.565868922118	42
2	323	26.565868922118	43
2	323	26.565868922118	44
2	348	28.366004712245	45
2	348	28.366004712245	46
2	348	28.366004712245	47
2	371	29.596881161747	48
2	371	29.596881161747	49
2	371	29.596881161747	50
2	395	31.312397553143	51
2	395	31.312397553143	52
2	395	31.312397553143	53
2	412	33.871919756743	54
2	412	33.871919756743	55
2	412	33.871919756743	56
2	447	38.399782050972	57
2	447	38.399782050972	58
2	447	38.399782050972	59
2	465	39.64681789272	60
2	465	39.64681789272	61
2	465	39.64681789272	62
2	496	42.374625831238	63
2	496	42.374625831238	64
2	496	42.374625831238	65
2	526	43.662771787107	66
2	526	43.662771787107	67
2	526	43.662771787107	68
2	547	45.040399969129	69
2	547	45.040399969129	70
2	547	45.040399969129	71
2	565	46.082615610478	72
2	565	46.082615610478	73
2	565	46.082615610478	74
2	588	47.990182455319	75
2	588	47.990182455319	76
2	588	47.990182455319	77
2	610	49.166291868695	78
2	610	49.166291868695	79
2	610	49.166291868695	80
2	646	50.816758822254	81
2	646	50.816758822254	82
2	646	50.816758822254	83
2	655	51.789909642751	84
2	655	51.789909642751	85
2	655	51.789909642751	86
2	677	53.419101831063	87
2	677	53.419101831063	88
2	677	53.419101831063	89
2	698	55.181843361201	90
2	698	55.181843361201	91
2	698	55.181843361201	92
2	709	56.578724472604	93
2	709	56.578724472604	94
2	709	56.578724472604	95
2	737	59.782434560239	96
2	737	59.782434560239	97
2	737	59.782434560239	98
2	760	61.111183706738	99
2	760	61.111183706738	100
2	760	61.111183706738	101
2	780	62.862249222175	102
2	780	62.862249222175	103
2	780	62.862249222175	104
2	812	64.599235750777	105
2	812	64.599235750777	106
2	812	64.599235750777	107
2	830	66.239979713168	108
2	830	66.239979713168	109
2	830	66.239979713168	110
2	855	67.349586087841	111
2	855	67.349586087841	112
2	855	67.349586087841	113
2	874	68.368980138955	114
2	874	68.368980138955	115
2	874	68.368980138955	116
2	900	69.740072478051	117
2	900	69.740072478051	118
2	900	69.740072478051	119
2	924	72.766081423904	120
2	924	72.766081423904	121
2	924	72.766081423904	122
2	945	74.079410049834	123
2	945	74.079410049834	124
2	945	74.079410049834	125
2	970	75.717920304887	126
2	970	75.717920304887	127
2	970	75.717920304887	128
2	992	76.810735886473	129
2	992	76.810735886473	130
2	992	76.810735886473	131
2	1017	78.077351221854	132
2	1017	78.077351221854	133
2	1017	78.077351221854	134
2	1049	79.765917374942	135
2	1049	79.765917374942	136
2	1049	79.765917374942	137
2	1073	82.647223752839	138
2	1073	82.647223752839	139
2	1073	82.647223752839	140
2	1092	84.027587602857	141
2	1092	84.027587602857	142
2	1092	84.027587602857	143
2	1115	87.195120583391	144
2	1115	87.195120583391	145
2	1115	87.195120583391	146
2	1140	88.658049374175	147
2	1140	88.658049374175	148
2	1140	88.658049374175	149
2	1168	91.86961646004	150
2	1168	91.86961646004	151
2	1168	91.86961646004	152
2	1190	93.413211813243	153
2	1190	93.413211813243	154
2	1190	93.413211813243	155
2	1211	94.96621191502	156
2	1211	94.96621191502	157
2	1211	94.96621191502	158
2	1227	96.821376042766	159
2	1227	96.821376042766	160
2	1227	96.821376042766	161
2	1266	98.19040184147	162
2	1266	98.19040184147	163
2	1266	98.19040184147	164
2	1277	99.585287707332	165
2	1277	99.585287707332	166
2	1277	99.585287707332	167
2	1299	101.026731678182	168
2	1299	101.026731678182	169
2	1299	101.026731678182	170
2	1338	102.200482292773	171
2	1338	102.200482292773	172
2	1338	102.200482292773	173
2	1345	103.537054038237	174
2	1345	103.537054038237	175
2	1345	103.537054038237	176
2	1360	105.338082188613	177
2	1360	105.338082188613	178
2	1360	105.338082188613	179
2	1377	106.785552505488	180
2	1377	106.785552505488	181
2	1377	106.785552505488	182
2	1410	108.7232460037	183
2	1410	108.7232460037	184
2	1410	108.7232460037	185
2	1427	110.384854387447	186
2	1427	110.384854387447	187
2	1427	110.384854387447	188
2	1446	111.669154264164	189
2	1446	111.669154264164	190
2	1446	111.669154264164	191
2	1468	112.793671960673	192
2	1468	112.793671960673	193
2	1468	112.793671960673	194
2	1487	114.689818566017	195
2	1487	114.689818566017	196
2	1487	114.689818566017	197
2	1521	117.740033376314	198
2	1521	117.740033376314	199
2	1521	117.740033376314	200
2	1549	119.489107088598	201
2	1549	119.489107088598	202
2	1549	119.489107088598	203
2	1560	120.954004337324	204
2	1560	120.954004337324	205
2	1560	120.954004337324	206
2	1582	122.898665299346	207
2	1582	122.898665299346	208
2	1582	122.898665299346	209
2	1597	124.215789072089	210
2	1597	124.215789072089	211
2	1597	124.215789072089	212
2	1618	125.350254138996	213
2	1618	125.350254138996	214
2	1618	125.350254138996	215
2	1646	126.725348634721	216
2	1646	126.725348634721	217
2	1646	126.725348634721	218
2	1679	128.118880669332	219
2	1679	128.118880669332	220
2	1679	128.118880669332	221
2	1691	129.273175670657	222
2	1691	129.273175670657	223
2	1691	129.273175670657	224
2	1709	131.071664033557	225
2	1709	131.071664033557	226
2	1709	131.071664033557	227
2	1730	132.408935645664	228
2	1730	132.408935645664	229
2	1730	132.408935645664	230
2	1754	134.933912163339	231
2	1754	134.933912163339	232
2	1754	134.933912163339	233
2	1777	136.397458079304	234
2	1777	136.397458079304	235
2	1777	136.397458079304	236
2	1811	139.700814889981	237
2	1811	139.700814889981	238
2	1811	139.700814889981	239
2	1836	141.643124910215	240
2	1836	141.643124910215	241
2	1836	141.643124910215	242
2	1861	143.431456209213	243
2	1861	143.431456209213	244
2	1861	143.431456209213	245
2	1886	144.876289610191	246
2	1886	144.876289610191	247
2	1886	144.876289610191	248
2	1912	146.164102102623	249
2	1912	146.164102102623	250
2	1912	146.164102102623	251
2	1936	147.892872554406	252
2	1936	147.892872554406	253
2	1936	147.892872554406	254
2	1958	149.418876720714	255
2	1958	149.418876720714	256
2	1958	149.418876720714	257
2	1990	150.812481496269	258
2	1990	150.812481496269	259
2	1990	150.812481496269	260
2	2019	154.043865110648	261
2	2019	154.043865110648	262
2	2019	154.043865110648	263
2	2038	155.400001639097	264
2	2038	155.400001639097	265
2	2038	155.400001639097	266
2	2062	156.487849477868	267
2	2062	156.487849477868	268
2	2062	156.487849477868	269
2	2084	158.420969344326	270
2	2084	158.420969344326	271
2	2084	158.420969344326	272
2	2106	159.962075622056	273
2	2106	159.962075622056	274
2	2106	159.962075622056	275
2	2127	161.115664939605	276
2	2127	161.115664939605	277
2	2127	161.115664939605	278
2	2149	162.383594885679	279
2	2149	162.383594885679	280
2	2149	162.383594885679	281
2	2178	163.461918899891	282
2	2178	163.461918899891	283
2	2178	163.461918899891	284
2	2195	164.957091904765	285
2	2195	164.957091904765	286
2	2195	164.957091904765	287
2	2221	166.71819225086	288
2	2221	166.71819225086	289
2	2221	166.71819225086	290
2	2242	168.344225510113	291
2	2242	168.344225510113	292
2	2242	168.344225510113	293
2	2264	170.044911717008	294
2	2264	170.044911717008	295
2	2264	170.044911717008	296
2	2286	171.438330275026	297
2	2286	171.438330275026	298
2	2286	171.438330275026	299
2	2315	173.261381879382	300
2	2315	173.261381879382	301
2	2315	173.261381879382	302
2	2333	174.926122735078	303
2	2333	174.926122735078	304
2	2333	174.926122735078	305
2	2358	176.598480188266	306
2	2358	176.598480188266	307
2	2358	176.598480188266	308
2	2375	178.384902444632	309
2	2375	178.384902444632	310
2	2375	178.384902444632	311
2	2395	179.508557219351	312
2	2395	179.508557219351	313
2	2395	179.508557219351	314
2	2415	181.208105580028	315
2	2415	181.208105580028	316
2	2415	181.208105580028	317
2	2440	182.684863237464	318
2	2440	182.684863237464	319
2	2440	182.684863237464	320
2	2463	184.106329527616	321
2	2463	184.106329527616	322
2	2463	184.106329527616	323
2	2483	185.347958608596	324
2	2483	185.347958608596	325
2	2483	185.347958608596	326
2	2505	186.856990082108	327
2	2505	186.856990082108	328
2	2505	186.856990082108	329
2	2526	188.382545243962	330
2	2526	188.382545243962	331
2	2526	188.382545243962	332
2	2552	190.263983604689	333
2	2552	190.263983604689	334
2	2552	190.263983604689	335
2	2577	192.076804469832	336
2	2577	192.076804469832	337
2	2577	192.076804469832	338
2	2585	193.135226849897	339
2	2585	193.135226849897	340
2	2585	193.135226849897	341
2	2612	195.639089297382	342
2	2612	195.639089297382	343
2	2612	195.639089297382	344
2	2631	196.784609133608	345
2	2631	196.784609133608	346
2	2631	196.784609133608	347
2	2655	198.476979350485	348
2	2655	198.476979350485	349
2	2655	198.476979350485	350
2	2678	199.873270352902	351
2	2678	199.873270352902	352
2	2678	199.873270352902	353
2	2706	201.090493908582	354
2	2706	201.090493908582	355
2	2706	201.090493908582	356
2	2725	202.781853403121	357
2	2725	202.781853403121	358
2	2725	202.781853403121	359
2	2739	203.94967697789	360
2	2739	203.94967697789	361
2	2739	203.94967697789	362
2	2765	205.711124583833	363
2	2765	205.711124583833	364
2	2765	205.711124583833	365
2	2786	207.579717988226	366
2	2786	207.579717988226	367
2	2786	207.579717988226	368
2	2813	209.168279314027	369
2	2813	209.168279314027	370
2	2813	209.168279314027	371
2	2833	210.339447617895	372
2	2833	210.339447617895	373
2	2833	210.339447617895	374
2	2856	212.095408090297	375
2	2856	212.095408090297	376
2	2856	212.095408090297	377
2	2878	213.329439084882	378
2	2878	213.329439084882	379
2	2878	213.329439084882	380
2	2900	215.31371625803	381
2	2900	215.31371625803	382
2	2900	215.31371625803	383
2	2918	217.186731831888	384
2	2918	217.186731831888	385
2	2918	217.186731831888	386
2	2946	219.954703817108	387
2	2946	219.954703817108	388
2	2946	219.954703817108	389
2	2961	221.594566164943	390
2	2961	221.594566164943	391
2	2961	221.594566164943	392
2	2980	223.150551445299	393
2	2980	223.150551445299	394
2	2980	223.150551445299	395
2	3001	226.355744121913	396
2	3001	226.355744121913	397
2	3001	226.355744121913	398
2	3025	227.425763437455	399
2	3025	227.425763437455	400
2	3025	227.425763437455	401
2	3068	233.21544619821	402
2	3068	233.21544619821	403
2	3068	233.21544619821	404
2	3100	234.962812351288	405
2	3100	234.962812351288	406
2	3100	234.962812351288	407
2	3127	236.348066212084	408
2	3127	236.348066212084	409
2	3127	236.348066212084	410
2	3140	237.311685875467	411
2	3140	237.311685875467	412
2	3140	237.311685875467	413
2	3166	239.016630861827	414
2	3166	239.016630861827	415
2	3166	239.016630861827	416
3	11	0.158289352909	0
3	11	0.158289352909	1
3	11	0.158289352909	2
3	26	2.464041895315	3
3	26	2.464041895315	4
3	26	2.464041895315	5
3	50	3.911463708956	6
3	50	3.911463708956	7
3	50	3.911463708956	8
3	82	5.494164556213	9
3	82	5.494164556213	10
3	82	5.494164556213	11
3	103	6.877609464575	12
3	103	6.877609464575	13
3	103	6.877609464575	14
3	118	8.747993830332	15
3	118	8.747993830332	16
3	118	8.747993830332	17
3	140	10.440384762996	18
3	140	10.440384762996	19
3	140	10.440384762996	20
3	157	13.589238715145	21
3	157	13.589238715145	22
3	157	13.589238715145	23
3	169	15.478585678714	24
3	169	15.478585678714	25
3	169	15.478585678714	26
3	197	17.24737324882	27
3	197	17.24737324882	28
3	197	17.24737324882	29
3	210	19.044512165218	30
3	210	19.044512165218	31
3	210	19.044512165218	32
3	233	20.805237280066	33
3	233	20.805237280066	34
3	233	20.805237280066	35
3	259	21.986279970944	36
3	259	21.986279970944	37
3	259	21.986279970944	38
3	283	24.000847187295	39
3	283	24.000847187295	40
3	283	24.000847187295	41
3	303	25.463091212526	42
3	303	25.463091212526	43
3	303	25.463091212526	44
3	328	26.582456322431	45
3	328	26.582456322431	46
3	328	26.582456322431	47
3	359	28.394139373925	48
3	359	28.394139373925	49
3	359	28.394139373925	50
3	378	29.62045773606	51
3	378	29.62045773606	52
3	378	29.62045773606	53
3	399	31.326052220737	54
3	399	31.326052220737	55
3	399	31.326052220737	56
3	420	33.891609097747	57
3	420	33.891609097747	58
3	420	33.891609097747	59
3	443	38.386575146384	60
3	443	38.386575146384	61
3	443	38.386575146384	62
3	470	39.666980464312	63
3	470	39.666980464312	64
3	470	39.666980464312	65
3	501	42.391274834507	66
3	501	42.391274834507	67
3	501	42.391274834507	68
3	521	43.64020581658	69
3	521	43.64020581658	70
3	521	43.64020581658	71
3	543	45.02833033018	72
3	543	45.02833033018	73
3	543	45.02833033018	74
3	570	46.096023046149	75
3	570	46.096023046149	76
3	570	46.096023046149	77
3	598	48.015845796493	78
3	598	48.015845796493	79
3	598	48.015845796493	80
3	617	49.178981611722	81
3	617	49.178981611722	82
3	617	49.178981611722	83
3	633	50.748023911132	84
3	633	50.748023911132	85
3	633	50.748023911132	86
3	660	51.802651692517	87
3	660	51.802651692517	88
3	660	51.802651692517	89
3	684	53.436586398321	90
3	684	53.436586398321	91
3	684	53.436586398321	92
3	724	56.709179003316	93
3	724	56.709179003316	94
3	724	56.709179003316	95
3	741	59.792659387658	96
3	741	59.792659387658	97
3	741	59.792659387658	98
3	766	61.12132044143	99
3	766	61.12132044143	100
3	766	61.12132044143	101
3	787	62.878015120762	102
3	787	62.878015120762	103
3	787	62.878015120762	104
3	808	64.583148566712	105
3	808	64.583148566712	106
3	808	64.583148566712	107
3	836	66.256057238066	108
3	836	66.256057238066	109
3	836	66.256057238066	110
3	859	67.361543377612	111
3	859	67.361543377612	112
3	859	67.361543377612	113
3	889	68.416875638247	114
3	889	68.416875638247	115
3	889	68.416875638247	116
3	903	69.745953628134	117
3	903	69.745953628134	118
3	903	69.745953628134	119
3	932	72.787009534942	120
3	932	72.787009534942	121
3	932	72.787009534942	122
3	957	74.121817230839	123
3	957	74.121817230839	124
3	957	74.121817230839	125
3	975	75.732977021925	126
3	975	75.732977021925	127
3	975	75.732977021925	128
3	997	76.821565493972	129
3	997	76.821565493972	130
3	997	76.821565493972	131
3	1021	78.087532631954	132
3	1021	78.087532631954	133
3	1021	78.087532631954	134
3	1045	79.745139403876	135
3	1045	79.745139403876	136
3	1045	79.745139403876	137
3	1066	81.18184120858	138
3	1066	81.18184120858	139
3	1066	81.18184120858	140
3	1084	82.680218708343	141
3	1084	82.680218708343	142
3	1084	82.680218708343	143
3	1095	84.034040234751	144
3	1095	84.034040234751	145
3	1095	84.034040234751	146
3	1120	87.215998100611	147
3	1120	87.215998100611	148
3	1120	87.215998100611	149
3	1144	88.675762521089	150
3	1144	88.675762521089	151
3	1144	88.675762521089	152
3	1172	91.885736334501	153
3	1172	91.885736334501	154
3	1172	91.885736334501	155
3	1198	93.450834942578	156
3	1198	93.450834942578	157
3	1198	93.450834942578	158
3	1212	94.975434678532	159
3	1212	94.975434678532	160
3	1212	94.975434678532	161
3	1233	96.838786245779	162
3	1233	96.838786245779	163
3	1233	96.838786245779	164
3	1254	98.14325353765	165
3	1254	98.14325353765	166
3	1254	98.14325353765	167
3	1287	99.606534640323	168
3	1287	99.606534640323	169
3	1287	99.606534640323	170
3	1305	101.04004897344	171
3	1305	101.04004897344	172
3	1305	101.04004897344	173
3	1326	102.145185611415	174
3	1326	102.145185611415	175
3	1326	102.145185611415	176
3	1349	103.550034940776	177
3	1349	103.550034940776	178
3	1349	103.550034940776	179
3	1370	105.381478776953	180
3	1370	105.381478776953	181
3	1370	105.381478776953	182
3	1382	106.799287517345	183
3	1382	106.799287517345	184
3	1382	106.799287517345	185
3	1405	108.703187649198	186
3	1405	108.703187649198	187
3	1405	108.703187649198	188
3	1432	110.420937781985	189
3	1432	110.420937781985	190
3	1432	110.420937781985	191
3	1461	111.737898535861	192
3	1461	111.737898535861	193
3	1461	111.737898535861	194
3	1473	112.807169906644	195
3	1473	112.807169906644	196
3	1473	112.807169906644	197
3	1493	114.703440204396	198
3	1493	114.703440204396	199
3	1493	114.703440204396	200
3	1520	117.737381333852	201
3	1520	117.737381333852	202
3	1520	117.737381333852	203
3	1545	119.465870472327	204
3	1545	119.465870472327	205
3	1545	119.465870472327	206
3	1568	120.981178215967	207
3	1568	120.981178215967	208
3	1568	120.981178215967	209
3	1600	124.224978722865	210
3	1600	124.224978722865	211
3	1600	124.224978722865	212
3	1623	125.365016355256	213
3	1623	125.365016355256	214
3	1623	125.365016355256	215
3	1654	126.751195485089	216
3	1654	126.751195485089	217
3	1654	126.751195485089	218
3	1671	128.089148753418	219
3	1671	128.089148753418	220
3	1671	128.089148753418	221
3	1694	129.279898595118	222
3	1694	129.279898595118	223
3	1694	129.279898595118	224
3	1715	131.08675561035	225
3	1715	131.08675561035	226
3	1715	131.08675561035	227
3	1735	132.425774205022	228
3	1735	132.425774205022	229
3	1735	132.425774205022	230
3	1766	134.974774448275	231
3	1766	134.974774448275	232
3	1766	134.974774448275	233
3	1784	136.414650642371	234
3	1784	136.414650642371	235
3	1784	136.414650642371	236
3	1804	137.737059250546	237
3	1804	137.737059250546	238
3	1804	137.737059250546	239
3	1815	139.719657425698	240
3	1815	139.719657425698	241
3	1815	139.719657425698	242
3	1845	141.671773946504	243
3	1845	141.671773946504	244
3	1845	141.671773946504	245
3	1866	143.443184644073	246
3	1866	143.443184644073	247
3	1866	143.443184644073	248
3	1898	144.910516586661	249
3	1898	144.910516586661	250
3	1898	144.910516586661	251
3	1915	146.166315450806	252
3	1915	146.166315450806	253
3	1915	146.166315450806	254
3	1940	147.905776411273	255
3	1940	147.905776411273	256
3	1940	147.905776411273	257
3	1962	149.430515860005	258
3	1962	149.430515860005	259
3	1962	149.430515860005	260
3	1986	150.801176119087	261
3	1986	150.801176119087	262
3	1986	150.801176119087	263
3	2008	152.711968631857	264
3	2008	152.711968631857	265
3	2008	152.711968631857	266
3	2018	154.035378662366	267
3	2018	154.035378662366	268
3	2018	154.035378662366	269
3	2045	155.421422850915	270
3	2045	155.421422850915	271
3	2045	155.421422850915	272
3	2069	156.507207954109	273
3	2069	156.507207954109	274
3	2069	156.507207954109	275
3	2095	158.466745538803	276
3	2095	158.466745538803	277
3	2095	158.466745538803	278
3	2111	159.975688126174	279
3	2111	159.975688126174	280
3	2111	159.975688126174	281
3	2132	161.127436759759	282
3	2132	161.127436759759	283
3	2132	161.127436759759	284
3	2156	162.403232051899	285
3	2156	162.403232051899	286
3	2156	162.403232051899	287
3	2177	163.458842749603	288
3	2177	163.458842749603	289
3	2177	163.458842749603	290
3	2210	165.014565185755	291
3	2210	165.014565185755	292
3	2210	165.014565185755	293
3	2220	166.709348298694	294
3	2220	166.709348298694	295
3	2220	166.709348298694	296
3	2246	168.363435299582	297
3	2246	168.363435299582	298
3	2246	168.363435299582	299
3	2272	170.063081819708	300
3	2272	170.063081819708	301
3	2272	170.063081819708	302
3	2294	171.456305872802	303
3	2294	171.456305872802	304
3	2294	171.456305872802	305
3	2314	173.257938727601	306
3	2314	173.257938727601	307
3	2314	173.257938727601	308
3	2344	174.969311919547	309
3	2344	174.969311919547	310
3	2344	174.969311919547	311
3	2363	176.608641027864	312
3	2363	176.608641027864	313
3	2363	176.608641027864	314
3	2383	178.407812107247	315
3	2383	178.407812107247	316
3	2383	178.407812107247	317
3	2398	179.511166752002	318
3	2398	179.511166752002	319
3	2398	179.511166752002	320
3	2423	181.235535980427	321
3	2423	181.235535980427	322
3	2423	181.235535980427	323
3	2451	182.731144467542	324
3	2451	182.731144467542	325
3	2451	182.731144467542	326
3	2469	184.121192070753	327
3	2469	184.121192070753	328
3	2469	184.121192070753	329
3	2492	185.373125358409	330
3	2492	185.373125358409	331
3	2492	185.373125358409	332
3	2509	186.867477636084	333
3	2509	186.867477636084	334
3	2509	186.867477636084	335
3	2534	188.406019476458	336
3	2534	188.406019476458	337
3	2534	188.406019476458	338
3	2548	190.25262726492	339
3	2548	190.25262726492	340
3	2548	190.25262726492	341
3	2573	192.066301321917	342
3	2573	192.066301321917	343
3	2573	192.066301321917	344
3	2588	193.140780571785	345
3	2588	193.140780571785	346
3	2588	193.140780571785	347
3	2623	195.67274075799	348
3	2623	195.67274075799	349
3	2623	195.67274075799	350
3	2634	196.793474853771	351
3	2634	196.793474853771	352
3	2634	196.793474853771	353
3	2659	198.490477864261	354
3	2659	198.490477864261	355
3	2659	198.490477864261	356
3	2681	199.877123238495	357
3	2681	199.877123238495	358
3	2681	199.877123238495	359
3	2702	201.076351806617	360
3	2702	201.076351806617	361
3	2702	201.076351806617	362
3	2720	202.7577518758	363
3	2720	202.7577518758	364
3	2720	202.7577518758	365
3	2743	203.960673442954	366
3	2743	203.960673442954	367
3	2743	203.960673442954	368
3	2768	205.720364890412	369
3	2768	205.720364890412	370
3	2768	205.720364890412	371
3	2793	207.600095309944	372
3	2793	207.600095309944	373
3	2793	207.600095309944	374
3	2814	209.169530585906	375
3	2814	209.169530585906	376
3	2814	209.169530585906	377
3	2840	210.353012635275	378
3	2840	210.353012635275	379
3	2840	210.353012635275	380
3	2864	212.122820536535	381
3	2864	212.122820536535	382
3	2864	212.122820536535	383
3	2879	213.330419958118	384
3	2879	213.330419958118	385
3	2879	213.330419958118	386
3	2905	215.331603550767	387
3	2905	215.331603550767	388
3	2905	215.331603550767	389
3	2925	217.202792567908	390
3	2925	217.202792567908	391
3	2925	217.202792567908	392
3	2950	219.96985455092	393
3	2950	219.96985455092	394
3	2950	219.96985455092	395
3	2975	223.132746875619	396
3	2975	223.132746875619	397
3	2975	223.132746875619	398
3	3004	226.36570801217	399
3	3004	226.36570801217	400
3	3004	226.36570801217	401
3	3030	227.444421598898	402
3	3030	227.444421598898	403
3	3030	227.444421598898	404
3	3050	229.39024939204	405
3	3050	229.39024939204	406
3	3050	229.39024939204	407
3	3075	233.233997155205	408
3	3075	233.233997155205	409
3	3075	233.233997155205	410
3	3096	234.952274546664	411
3	3096	234.952274546664	412
3	3096	234.952274546664	413
3	3118	236.317252195742	414
3	3118	236.317252195742	415
3	3118	236.317252195742	416
3	3148	237.32849933075	417
3	3148	237.32849933075	418
3	3148	237.32849933075	419
3	3180	239.07509952895	420
3	3180	239.07509952895	421
3	3180	239.07509952895	422
4	25	2.456832152648	0
4	25	2.456832152648	1
4	25	2.456832152648	2
4	51	3.914303283977	3
4	51	3.914303283977	4
4	51	3.914303283977	5
4	76	5.481895983367	6
4	76	5.481895983367	7
4	76	5.481895983367	8
4	117	8.747350225921	9
4	117	8.747350225921	10
4	117	8.747350225921	11
4	136	10.427782138769	12
4	136	10.427782138769	13
4	136	10.427782138769	14
4	168	15.471629148905	15
4	168	15.471629148905	16
4	168	15.471629148905	17
4	191	17.232884131215	18
4	191	17.232884131215	19
4	191	17.232884131215	20
4	218	19.070423272301	21
4	218	19.070423272301	22
4	218	19.070423272301	23
4	240	20.910993950144	24
4	240	20.910993950144	25
4	240	20.910993950144	26
4	260	21.986550392507	27
4	260	21.986550392507	28
4	260	21.986550392507	29
4	284	24.002535154962	30
4	284	24.002535154962	31
4	284	24.002535154962	32
4	302	25.456315257276	33
4	302	25.456315257276	34
4	302	25.456315257276	35
4	327	26.579252358691	36
4	327	26.579252358691	37
4	327	26.579252358691	38
4	355	28.3836561909	39
4	355	28.3836561909	40
4	355	28.3836561909	41
4	377	29.610515085272	42
4	377	29.610515085272	43
4	377	29.610515085272	44
4	419	33.88658483825	45
4	419	33.88658483825	46
4	419	33.88658483825	47
4	452	38.414740731732	48
4	452	38.414740731732	49
4	452	38.414740731732	50
4	471	39.66746388357	51
4	471	39.66746388357	52
4	471	39.66746388357	53
4	500	42.385951522182	54
4	500	42.385951522182	55
4	500	42.385951522182	56
4	533	43.681515928214	57
4	533	43.681515928214	58
4	533	43.681515928214	59
4	555	45.063692464469	60
4	555	45.063692464469	61
4	555	45.063692464469	62
4	569	46.09549495072	63
4	569	46.09549495072	64
4	569	46.09549495072	65
4	594	48.000627263927	66
4	594	48.000627263927	67
4	594	48.000627263927	68
4	616	49.178264195861	69
4	616	49.178264195861	70
4	616	49.178264195861	71
4	641	50.77551790165	72
4	641	50.77551790165	73
4	641	50.77551790165	74
4	659	51.800008699995	75
4	659	51.800008699995	76
4	659	51.800008699995	77
4	685	53.436713497078	78
4	685	53.436713497078	79
4	685	53.436713497078	80
4	702	55.193129369107	81
4	702	55.193129369107	82
4	702	55.193129369107	83
4	713	56.619834640954	84
4	713	56.619834640954	85
4	713	56.619834640954	86
4	745	59.803232869605	87
4	745	59.803232869605	88
4	745	59.803232869605	89
4	767	61.122270532703	90
4	767	61.122270532703	91
4	767	61.122270532703	92
4	788	62.884699060355	93
4	788	62.884699060355	94
4	788	62.884699060355	95
4	820	64.623529518896	96
4	820	64.623529518896	97
4	820	64.623529518896	98
4	835	66.250833012785	99
4	835	66.250833012785	100
4	835	66.250833012785	101
4	860	67.371477136339	102
4	860	67.371477136339	103
4	860	67.371477136339	104
4	881	68.388752172269	105
4	881	68.388752172269	106
4	881	68.388752172269	107
4	914	69.773588219588	108
4	914	69.773588219588	109
4	914	69.773588219588	110
4	928	72.77641418481	111
4	928	72.77641418481	112
4	928	72.77641418481	113
4	952	74.105949803395	114
4	952	74.105949803395	115
4	952	74.105949803395	116
4	974	75.731833472962	117
4	974	75.731833472962	118
4	974	75.731833472962	119
4	1003	76.838968733272	120
4	1003	76.838968733272	121
4	1003	76.838968733272	122
4	1025	78.098690691679	123
4	1025	78.098690691679	124
4	1025	78.098690691679	125
4	1053	79.782640279534	126
4	1053	79.782640279534	127
4	1053	79.782640279534	128
4	1078	82.662444686344	129
4	1078	82.662444686344	130
4	1078	82.662444686344	131
4	1099	84.04274373224	132
4	1099	84.04274373224	133
4	1099	84.04274373224	134
4	1119	87.211318031229	135
4	1119	87.211318031229	136
4	1119	87.211318031229	137
4	1148	88.704716195249	138
4	1148	88.704716195249	139
4	1148	88.704716195249	140
4	1178	91.90870481729	141
4	1178	91.90870481729	142
4	1178	91.90870481729	143
4	1194	93.431519462173	144
4	1194	93.431519462173	145
4	1194	93.431519462173	146
4	1216	94.980468517716	147
4	1216	94.980468517716	148
4	1216	94.980468517716	149
4	1241	96.900607921393	150
4	1241	96.900607921393	151
4	1241	96.900607921393	152
4	1262	98.179066582646	153
4	1262	98.179066582646	154
4	1262	98.179066582646	155
4	1283	99.596344279728	156
4	1283	99.596344279728	157
4	1283	99.596344279728	158
4	1306	101.040739880049	159
4	1306	101.040739880049	160
4	1306	101.040739880049	161
4	1334	102.173987077531	162
4	1334	102.173987077531	163
4	1334	102.173987077531	164
4	1366	105.356565372506	165
4	1366	105.356565372506	166
4	1366	105.356565372506	167
4	1389	106.812682340895	168
4	1389	106.812682340895	169
4	1389	106.812682340895	170
4	1417	108.73996447143	171
4	1417	108.73996447143	172
4	1417	108.73996447143	173
4	1431	110.416832998062	174
4	1431	110.416832998062	175
4	1431	110.416832998062	176
4	1450	111.693894682027	177
4	1450	111.693894682027	178
4	1450	111.693894682027	179
4	1476	112.816263393443	180
4	1476	112.816263393443	181
4	1476	112.816263393443	182
4	1494	114.710179236124	183
4	1494	114.710179236124	184
4	1494	114.710179236124	185
4	1532	117.770833669004	186
4	1532	117.770833669004	187
4	1532	117.770833669004	188
4	1553	119.4996955442	189
4	1553	119.4996955442	190
4	1553	119.4996955442	191
4	1567	120.97566922769	192
4	1567	120.97566922769	193
4	1567	120.97566922769	194
4	1586	122.912574507578	195
4	1586	122.912574507578	196
4	1586	122.912574507578	197
4	1607	124.260321336801	198
4	1607	124.260321336801	199
4	1607	124.260321336801	200
4	1624	125.367244250952	201
4	1624	125.367244250952	202
4	1624	125.367244250952	203
4	1650	126.738356323476	204
4	1650	126.738356323476	205
4	1650	126.738356323476	206
4	1680	128.120604031196	207
4	1680	128.120604031196	208
4	1680	128.120604031196	209
4	1701	129.290637590467	210
4	1701	129.290637590467	211
4	1701	129.290637590467	212
4	1723	131.114691198337	213
4	1723	131.114691198337	214
4	1723	131.114691198337	215
4	1741	132.436585383488	216
4	1741	132.436585383488	217
4	1741	132.436585383488	218
4	1758	134.945692442112	219
4	1758	134.945692442112	220
4	1758	134.945692442112	221
4	1783	136.409307066621	222
4	1783	136.409307066621	223
4	1783	136.409307066621	224
4	1816	139.720694752426	225
4	1816	139.720694752426	226
4	1816	139.720694752426	227
4	1840	141.654107423175	228
4	1840	141.654107423175	229
4	1840	141.654107423175	230
4	1869	143.451106340902	231
4	1869	143.451106340902	232
4	1869	143.451106340902	233
4	1891	144.888716654978	234
4	1891	144.888716654978	235
4	1891	144.888716654978	236
4	1922	146.17796004696	237
4	1922	146.17796004696	238
4	1922	146.17796004696	239
4	1941	147.911939844853	240
4	1941	147.911939844853	241
4	1941	147.911939844853	242
4	1963	149.431290304139	243
4	1963	149.431290304139	244
4	1963	149.431290304139	245
4	1994	150.827112939137	246
4	1994	150.827112939137	247
4	1994	150.827112939137	248
4	2027	154.057843404571	249
4	2027	154.057843404571	250
4	2027	154.057843404571	251
4	2044	155.41945912265	252
4	2044	155.41945912265	253
4	2044	155.41945912265	254
4	2073	156.520303212924	255
4	2073	156.520303212924	256
4	2073	156.520303212924	257
4	2088	158.440317122581	258
4	2088	158.440317122581	259
4	2088	158.440317122581	260
4	2117	159.98639894335	261
4	2117	159.98639894335	262
4	2117	159.98639894335	263
4	2135	161.134193839247	264
4	2135	161.134193839247	265
4	2135	161.134193839247	266
4	2157	162.409399438094	267
4	2157	162.409399438094	268
4	2157	162.409399438094	269
4	2185	163.481788672456	270
4	2185	163.481788672456	271
4	2185	163.481788672456	272
4	2202	164.976219401263	273
4	2202	164.976219401263	274
4	2202	164.976219401263	275
4	2228	166.729518770902	276
4	2228	166.729518770902	277
4	2228	166.729518770902	278
4	2251	168.391552893277	279
4	2251	168.391552893277	280
4	2251	168.391552893277	281
4	2269	170.055355613593	282
4	2269	170.055355613593	283
4	2269	170.055355613593	284
4	2291	171.449276294696	285
4	2291	171.449276294696	286
4	2291	171.449276294696	287
4	2322	173.30030074389	288
4	2322	173.30030074389	289
4	2322	173.30030074389	290
4	2337	174.936448755174	291
4	2337	174.936448755174	292
4	2337	174.936448755174	293
4	2379	178.397464974931	294
4	2379	178.397464974931	295
4	2379	178.397464974931	296
4	2405	179.533901972438	297
4	2405	179.533901972438	298
4	2405	179.533901972438	299
4	2420	181.229387605	300
4	2420	181.229387605	301
4	2420	181.229387605	302
4	2445	182.69611414248	303
4	2445	182.69611414248	304
4	2445	182.69611414248	305
4	2470	184.121516780282	306
4	2470	184.121516780282	307
4	2470	184.121516780282	308
4	2487	185.360483502859	309
4	2487	185.360483502859	310
4	2487	185.360483502859	311
4	2510	186.874022258386	312
4	2510	186.874022258386	313
4	2510	186.874022258386	314
4	2530	188.39454939243	315
4	2530	188.39454939243	316
4	2530	188.39454939243	317
4	2560	190.284682181698	318
4	2560	190.284682181698	319
4	2560	190.284682181698	320
4	2595	193.155052608396	321
4	2595	193.155052608396	322
4	2595	193.155052608396	323
4	2617	195.653907358244	324
4	2617	195.653907358244	325
4	2617	195.653907358244	326
4	2638	196.798564278438	327
4	2638	196.798564278438	328
4	2638	196.798564278438	329
4	2660	198.496693559698	330
4	2660	198.496693559698	331
4	2660	198.496693559698	332
4	2688	199.893884080912	333
4	2688	199.893884080912	334
4	2688	199.893884080912	335
4	2710	201.105411463654	336
4	2710	201.105411463654	337
4	2710	201.105411463654	338
4	2732	202.800171989145	339
4	2732	202.800171989145	340
4	2732	202.800171989145	341
4	2754	204.007464832902	342
4	2754	204.007464832902	343
4	2754	204.007464832902	344
4	2775	205.73681643615	345
4	2775	205.73681643615	346
4	2775	205.73681643615	347
4	2792	207.592894703168	348
4	2792	207.592894703168	349
4	2792	207.592894703168	350
4	2822	209.184282246138	351
4	2822	209.184282246138	352
4	2822	209.184282246138	353
4	2839	210.350721162601	354
4	2839	210.350721162601	355
4	2839	210.350721162601	356
4	2860	212.109691391441	357
4	2860	212.109691391441	358
4	2860	212.109691391441	359
4	2886	213.345424958177	360
4	2886	213.345424958177	361
4	2886	213.345424958177	362
4	2904	215.324726582036	363
4	2904	215.324726582036	364
4	2904	215.324726582036	365
4	2926	217.207835632623	366
4	2926	217.207835632623	367
4	2926	217.207835632623	368
4	2954	219.98245190811	369
4	2954	219.98245190811	370
4	2954	219.98245190811	371
4	2965	221.622776465076	372
4	2965	221.622776465076	373
4	2965	221.622776465076	374
4	2987	223.163309634427	375
4	2987	223.163309634427	376
4	2987	223.163309634427	377
4	3008	226.368579519552	378
4	3008	226.368579519552	379
4	3008	226.368579519552	380
4	3029	227.435920905984	381
4	3029	227.435920905984	382
4	3029	227.435920905984	383
4	3058	229.415893928165	384
4	3058	229.415893928165	385
4	3058	229.415893928165	386
4	3076	233.237062620708	387
4	3076	233.237062620708	388
4	3076	233.237062620708	389
4	3108	234.982822217596	390
4	3108	234.982822217596	391
4	3108	234.982822217596	392
4	3126	236.34469631428	393
4	3126	236.34469631428	394
4	3126	236.34469631428	395
4	3147	237.327726662272	396
4	3147	237.327726662272	397
4	3147	237.327726662272	398
4	3172	239.030220256111	399
4	3172	239.030220256111	400
4	3172	239.030220256111	401
5	30	2.473617416936	0
5	30	2.473617416936	1
5	59	3.924511583446	2
5	59	3.924511583446	3
5	84	5.498224790687	4
5	84	5.498224790687	5
5	198	17.250767122514	6
5	198	17.250767122514	7
5	244	20.92389401801	8
5	244	20.92389401801	9
5	307	25.467984546096	10
5	307	25.467984546096	11
5	340	26.601214576714	12
5	340	26.601214576714	13
5	382	29.626482573807	14
5	382	29.626482573807	15
5	459	38.429392569323	16
5	459	38.429392569323	17
5	484	39.692123048438	18
5	484	39.692123048438	19
5	509	42.409257976568	20
5	509	42.409257976568	21
5	578	46.142361208027	22
5	578	46.142361208027	23
5	624	49.200007161312	24
5	624	49.200007161312	25
5	645	50.806925467762	26
5	645	50.806925467762	27
5	692	53.455896388901	28
5	692	53.455896388901	29
5	717	56.634818209684	30
5	717	56.634818209684	31
5	750	59.818772888288	32
5	750	59.818772888288	33
5	774	61.141896297615	34
5	774	61.141896297615	35
5	796	62.901068010606	36
5	796	62.901068010606	37
5	824	64.641057133561	38
5	824	64.641057133561	39
5	885	68.400622829478	40
5	885	68.400622829478	41
5	933	72.79213032472	42
5	933	72.79213032472	43
5	958	74.12498065511	44
5	958	74.12498065511	45
5	1008	76.863899231331	46
5	1008	76.863899231331	47
5	1036	78.121805921635	48
5	1036	78.121805921635	49
5	1057	79.800721676606	50
5	1057	79.800721676606	51
5	1106	84.05945194697	52
5	1106	84.05945194697	53
5	1124	87.221536425914	54
5	1124	87.221536425914	55
5	1153	88.729893734529	56
5	1153	88.729893734529	57
5	1245	96.914529358729	58
5	1245	96.914529358729	59
5	1267	98.190645072269	60
5	1267	98.190645072269	61
5	1313	101.058635535007	62
5	1313	101.058635535007	63
5	1396	106.841286026035	64
5	1396	106.841286026035	65
5	1421	108.757085408147	66
5	1421	108.757085408147	67
5	1454	111.707069207744	68
5	1454	111.707069207744	69
5	1501	114.721776643872	70
5	1501	114.721776643872	71
5	1536	117.787244619425	72
5	1536	117.787244619425	73
5	1590	122.939193345561	74
5	1590	122.939193345561	75
5	1633	125.38066184818	76
5	1633	125.38066184818	77
5	1655	126.75145602424	78
5	1655	126.75145602424	79
5	1745	132.456370006698	80
5	1745	132.456370006698	81
5	1795	136.436160090106	82
5	1795	136.436160090106	83
5	1826	139.744086507191	84
5	1826	139.744086507191	85
5	1848	141.679047793138	86
5	1848	141.679047793138	87
5	1877	143.466566640449	88
5	1877	143.466566640449	89
5	1897	144.909918352095	90
5	1897	144.909918352095	91
5	1926	146.192902424052	92
5	1926	146.192902424052	93
5	1970	149.442525961749	94
5	1970	149.442525961749	95
5	2052	155.433683597972	96
5	2052	155.433683597972	97
5	2121	159.997952698649	98
5	2121	159.997952698649	99
5	2165	162.432848978257	100
5	2165	162.432848978257	101
5	2189	163.49320899731	102
5	2189	163.49320899731	103
5	2258	168.40224299476	104
5	2258	168.40224299476	105
5	2298	171.465155589267	106
5	2298	171.465155589267	107
5	2345	174.975813243338	108
5	2345	174.975813243338	109
5	2409	179.548384034931	110
5	2409	179.548384034931	111
5	2427	181.244410292394	112
5	2427	181.244410292394	113
5	2477	184.132746873486	114
5	2477	184.132746873486	115
5	2496	185.382473875603	116
5	2496	185.382473875603	117
5	2520	186.898909331846	118
5	2520	186.898909331846	119
5	2564	190.297775973138	120
5	2564	190.297775973138	121
5	2603	193.169095050469	122
5	2603	193.169095050469	123
5	2645	196.808738144035	124
5	2645	196.808738144035	125
5	2758	204.021326652354	126
5	2758	204.021326652354	127
5	2779	205.787579527342	128
5	2779	205.787579527342	129
5	2804	207.625522191538	130
5	2804	207.625522191538	131
5	2844	210.361932877592	132
5	2844	210.361932877592	133
5	2894	213.370803517411	134
5	2894	213.370803517411	135
5	2934	217.227466327248	136
5	2934	217.227466327248	137
5	2991	223.180970888977	138
5	2991	223.180970888977	139
5	3016	226.38022038413	140
5	3016	226.38022038413	141
5	3035	227.448097703536	142
5	3035	227.448097703536	143
5	3083	233.250701764419	144
5	3083	233.250701764419	145
5	3134	236.40385251503	146
5	3134	236.40385251503	147
5	3159	237.389724472361	148
5	3159	237.389724472361	149
6	37	2.491285334163	0
6	37	2.491285334163	1
6	37	2.491285334163	2
6	60	3.926373469276	3
6	60	3.926373469276	4
6	60	3.926373469276	5
6	83	5.49503262479	6
6	83	5.49503262479	7
6	83	5.49503262479	8
6	125	8.768380490239	9
6	125	8.768380490239	10
6	125	8.768380490239	11
6	141	10.444368549068	12
6	141	10.444368549068	13
6	141	10.444368549068	14
6	176	15.489096970514	15
6	176	15.489096970514	16
6	176	15.489096970514	17
6	222	19.086498094288	18
6	222	19.086498094288	19
6	222	19.086498094288	20
6	247	20.943796026531	21
6	247	20.943796026531	22
6	247	20.943796026531	23
6	269	22.014448431862	24
6	269	22.014448431862	25
6	269	22.014448431862	26
6	291	24.020767400805	27
6	291	24.020767400805	28
6	291	24.020767400805	29
6	316	25.508713432183	30
6	316	25.508713432183	31
6	316	25.508713432183	32
6	332	26.589510952317	33
6	332	26.589510952317	34
6	332	26.589510952317	35
6	363	28.423396670504	36
6	363	28.423396670504	37
6	363	28.423396670504	38
6	388	29.637444380743	39
6	388	29.637444380743	40
6	388	29.637444380743	41
6	424	33.899807690388	42
6	424	33.899807690388	43
6	424	33.899807690388	44
6	448	38.405206517934	45
6	448	38.405206517934	46
6	448	38.405206517934	47
6	480	39.677717320961	48
6	480	39.677717320961	49
6	480	39.677717320961	50
6	508	42.405966081312	51
6	508	42.405966081312	52
6	508	42.405966081312	53
6	525	43.656374504414	54
6	525	43.656374504414	55
6	525	43.656374504414	56
6	551	45.050879015377	57
6	551	45.050879015377	58
6	551	45.050879015377	59
6	577	46.141645824883	60
6	577	46.141645824883	61
6	577	46.141645824883	62
6	599	48.020538542325	63
6	599	48.020538542325	64
6	599	48.020538542325	65
6	637	50.762546735979	66
6	637	50.762546735979	67
6	637	50.762546735979	68
6	668	51.817044402496	69
6	668	51.817044402496	70
6	668	51.817044402496	71
6	720	56.698314792979	72
6	720	56.698314792979	73
6	720	56.698314792979	74
6	746	59.811905143795	75
6	746	59.811905143795	76
6	746	59.811905143795	77
6	792	62.891353975139	78
6	792	62.891353975139	79
6	792	62.891353975139	80
6	813	64.601159030856	81
6	813	64.601159030856	82
6	813	64.601159030856	83
6	845	66.267080943262	84
6	845	66.267080943262	85
6	845	66.267080943262	86
6	867	67.413557805806	87
6	867	67.413557805806	88
6	867	67.413557805806	89
6	886	68.409576583745	90
6	886	68.409576583745	91
6	886	68.409576583745	92
6	910	69.762861232872	93
6	910	69.762861232872	94
6	910	69.762861232872	95
6	956	74.117324154293	96
6	956	74.117324154293	97
6	956	74.117324154293	98
6	982	75.746295617976	99
6	982	75.746295617976	100
6	982	75.746295617976	101
6	1007	76.857603685225	102
6	1007	76.857603685225	103
6	1007	76.857603685225	104
6	1030	78.110338198082	105
6	1030	78.110338198082	106
6	1030	78.110338198082	107
6	1125	87.223887347086	108
6	1125	87.223887347086	109
6	1125	87.223887347086	110
6	1152	88.724559215736	111
6	1152	88.724559215736	112
6	1152	88.724559215736	113
6	1176	91.901614617334	114
6	1176	91.901614617334	115
6	1176	91.901614617334	116
6	1237	96.865850267259	117
6	1237	96.865850267259	118
6	1237	96.865850267259	119
6	1258	98.164672484812	120
6	1258	98.164672484812	121
6	1258	98.164672484812	122
6	1288	99.60768578739	123
6	1288	99.60768578739	124
6	1288	99.60768578739	125
6	1316	101.097235088036	126
6	1316	101.097235088036	127
6	1316	101.097235088036	128
6	1330	102.162291826597	129
6	1330	102.162291826597	130
6	1330	102.162291826597	131
6	1388	106.809350214854	132
6	1388	106.809350214854	133
6	1388	106.809350214854	134
6	1409	108.713378706217	135
6	1409	108.713378706217	136
6	1409	108.713378706217	137
6	1439	110.437433043101	138
6	1439	110.437433043101	139
6	1439	110.437433043101	140
6	1457	111.719296100299	141
6	1457	111.719296100299	142
6	1457	111.719296100299	143
6	1502	114.724057711192	144
6	1502	114.724057711192	145
6	1502	114.724057711192	146
6	1528	117.760424841075	147
6	1528	117.760424841075	148
6	1528	117.760424841075	149
6	1575	120.997892189353	150
6	1575	120.997892189353	151
6	1575	120.997892189353	152
6	1611	124.290956606415	153
6	1611	124.290956606415	154
6	1611	124.290956606415	155
6	1634	125.386413461652	156
6	1634	125.386413461652	157
6	1634	125.386413461652	158
6	1656	126.758925040484	159
6	1656	126.758925040484	160
6	1656	126.758925040484	161
6	1675	128.107119643022	162
6	1675	128.107119643022	163
6	1675	128.107119643022	164
6	1719	131.096853839797	165
6	1719	131.096853839797	166
6	1719	131.096853839797	167
6	1762	134.958677404506	168
6	1762	134.958677404506	169
6	1762	134.958677404506	170
6	1788	136.422286513753	171
6	1788	136.422286513753	172
6	1788	136.422286513753	173
6	1829	139.754127120421	174
6	1829	139.754127120421	175
6	1829	139.754127120421	176
6	1854	141.693247303083	177
6	1854	141.693247303083	178
6	1854	141.693247303083	179
6	1876	143.461349372769	180
6	1876	143.461349372769	181
6	1876	143.461349372769	182
6	1904	144.932111978221	183
6	1904	144.932111978221	184
6	1904	144.932111978221	185
6	1929	146.219734475363	186
6	1929	146.219734475363	187
6	1929	146.219734475363	188
6	1948	147.922287519336	189
6	1948	147.922287519336	190
6	1948	147.922287519336	191
6	1971	149.444363794458	192
6	1971	149.444363794458	193
6	1971	149.444363794458	194
6	1998	150.838444753848	195
6	1998	150.838444753848	196
6	1998	150.838444753848	197
6	2023	154.052328211295	198
6	2023	154.052328211295	199
6	2023	154.052328211295	200
6	2053	155.437953304459	201
6	2053	155.437953304459	202
6	2053	155.437953304459	203
6	2077	156.53346318456	204
6	2077	156.53346318456	205
6	2077	156.53346318456	206
6	2099	158.493820977059	207
6	2099	158.493820977059	208
6	2099	158.493820977059	209
6	2142	161.15000946032	210
6	2142	161.15000946032	211
6	2142	161.15000946032	212
6	2164	162.432025826616	213
6	2164	162.432025826616	214
6	2164	162.432025826616	215
6	2206	165.002774587792	216
6	2206	165.002774587792	217
6	2206	165.002774587792	218
6	2232	166.783277179633	219
6	2232	166.783277179633	220
6	2232	166.783277179633	221
6	2250	168.385934351455	222
6	2250	168.385934351455	223
6	2250	168.385934351455	224
6	2276	170.072855978785	225
6	2276	170.072855978785	226
6	2276	170.072855978785	227
6	2302	171.469753556523	228
6	2302	171.469753556523	229
6	2302	171.469753556523	230
6	2326	173.319142252724	231
6	2326	173.319142252724	232
6	2326	173.319142252724	233
6	2351	174.987830609615	234
6	2351	174.987830609615	235
6	2351	174.987830609615	236
6	2387	178.456794052035	237
6	2387	178.456794052035	238
6	2387	178.456794052035	239
6	2431	181.250139273803	240
6	2431	181.250139273803	241
6	2431	181.250139273803	242
6	2455	182.743474740315	243
6	2455	182.743474740315	244
6	2455	182.743474740315	245
6	2491	185.371697270825	246
6	2491	185.371697270825	247
6	2491	185.371697270825	248
6	2535	188.410908774643	249
6	2535	188.410908774643	250
6	2535	188.410908774643	251
6	2553	190.272804807093	252
6	2553	190.272804807093	253
6	2553	190.272804807093	254
6	2596	193.155832573421	255
6	2596	193.155832573421	256
6	2596	193.155832573421	257
6	2646	196.811776379547	258
6	2646	196.811776379547	259
6	2646	196.811776379547	260
6	2664	198.501311912883	261
6	2664	198.501311912883	262
6	2664	198.501311912883	263
6	2692	199.920656306712	264
6	2692	199.920656306712	265
6	2692	199.920656306712	266
6	2724	202.777433193086	267
6	2724	202.777433193086	268
6	2724	202.777433193086	269
6	2750	203.989807777524	270
6	2750	203.989807777524	271
6	2750	203.989807777524	272
6	2797	207.606877443969	273
6	2797	207.606877443969	274
6	2797	207.606877443969	275
6	2821	209.180426041201	276
6	2821	209.180426041201	277
6	2821	209.180426041201	278
6	2868	212.136427203541	279
6	2868	212.136427203541	280
6	2868	212.136427203541	281
6	2890	213.360457489133	282
6	2890	213.360457489133	283
6	2890	213.360457489133	284
6	2933	217.225031887042	285
6	2933	217.225031887042	286
6	2933	217.225031887042	287
6	2979	223.143698076106	288
6	2979	223.143698076106	289
6	2979	223.143698076106	290
6	3015	226.379209844995	291
6	3015	226.379209844995	292
6	3015	226.379209844995	293
6	3034	227.448096201321	294
6	3034	227.448096201321	295
6	3034	227.448096201321	296
6	3054	229.402584546168	297
6	3054	229.402584546168	298
6	3054	229.402584546168	299
6	3084	233.25137018736	300
6	3084	233.25137018736	301
6	3084	233.25137018736	302
6	3101	234.963011947374	303
6	3101	234.963011947374	304
6	3101	234.963011947374	305
6	3122	236.328486459311	306
6	3122	236.328486459311	307
6	3122	236.328486459311	308
6	3155	237.364580374112	309
6	3155	237.364580374112	310
6	3155	237.364580374112	311
6	3176	239.046022563131	312
6	3176	239.046022563131	313
6	3176	239.046022563131	314
7	64	3.934511583446	0
7	90	5.50503262479	1
7	147	10.454368549068	2
7	246	20.93389401801	3
7	319	25.518713432183	4
7	339	26.599510952317	5
7	366	28.433396670504	6
7	387	29.636482573807	7
7	391	29.647444380743	8
7	461	38.439392569323	9
7	514	42.419257976568	10
7	581	46.151645824883	11
7	694	53.465896388901	12
7	719	56.644818209684	13
7	819	64.611159030856	14
7	913	69.772861232872	15
7	1013	76.873899231331	16
7	1108	84.06945194697	17
7	1156	88.734559215736	18
7	1181	91.911614617334	19
7	1315	101.068635535007	20
7	1319	101.107235088036	21
7	1456	111.717069207744	22
7	1507	114.734057711192	23
7	1538	117.797244619425	24
7	1636	125.39066184818	25
7	1664	126.768925040484	26
7	1678	128.117119643022	27
7	1722	131.106853839797	28
7	1932	146.229734475363	29
7	2260	168.41224299476	30
7	2307	171.479753556523	31
7	2350	174.985813243338	32
7	2433	181.254410292394	33
7	2436	181.260139273803	34
7	2479	184.142746873486	35
7	2541	188.420908774643	36
7	2648	196.818738144035	37
7	2781	205.797579527342	38
7	2806	207.635522191538	39
7	2893	213.370457489133	40
7	2983	223.153698076106	41
7	3161	237.399724472361	42

