version 2
run General-2-20231008-09:10:40-18810
attr configname General
attr datetime 20231008-09:10:40
attr experiment General
attr inifile omnetpp.ini
attr iterationvars ""
attr iterationvarsf ""
attr measurement ""
attr network Network3
attr processid 18810
attr repetition 2
attr replication #2
attr resultdir results
attr runnumber 2
attr seedset 2
param Network3.node[*].transmissionTime "uniform(1s, 2s)"
param Network3.node[*].delayTime "uniform(0.01s, 0.2s)"
param Network3.node[*].processingTime exponential(0.01s)
param Network3.node[0].lossProbability 0
param Network3.node[1].lossProbability 0.25
param Network3.node[2].lossProbability 0.25
param Network3.node[3].lossProbability "0.25 / 2"
param Network3.node[4].lossProbability "0.25 / 2"
param Network3.node[6].lossProbability "0.25 * 2"
param Network3.node[7].lossProbability "0.25 * 2"
param Network3.node[5].lossProbability "0.25 * 3"

vector 0 Network3.node[0] txVector ETV
vector 1 Network3.node[2] txVector ETV
vector 2 Network3.node[4] txVector ETV
vector 3 Network3.node[1] txVector ETV
vector 4 Network3.node[3] txVector ETV
vector 5 Network3.node[7] txVector ETV
vector 6 Network3.node[6] txVector ETV
vector 7 Network3.node[5] rxVector ETV
0	1	0.092839031499	0
0	1	0.092839031499	1
0	19	1.277921112972	2
0	19	1.277921112972	3
0	44	2.910658843602	4
0	44	2.910658843602	5
0	47	4.338781174757	6
0	47	4.338781174757	7
0	57	5.520508212056	8
0	57	5.520508212056	9
0	79	7.097816282203	10
0	79	7.097816282203	11
0	101	8.950097315264	12
0	101	8.950097315264	13
0	126	10.764235732163	14
0	126	10.764235732163	15
0	148	11.933461177879	16
0	148	11.933461177879	17
0	173	13.765478077828	18
0	173	13.765478077828	19
0	198	15.177224518516	20
0	198	15.177224518516	21
0	223	17.058876747516	22
0	223	17.058876747516	23
0	244	18.988016648236	24
0	244	18.988016648236	25
0	266	20.233827809355	26
0	266	20.233827809355	27
0	285	21.519431541691	28
0	285	21.519431541691	29
0	307	23.355949193024	30
0	307	23.355949193024	31
0	313	25.266604709922	32
0	313	25.266604709922	33
0	327	26.624845017696	34
0	327	26.624845017696	35
0	345	28.21201921908	36
0	345	28.21201921908	37
0	348	29.947370613243	38
0	348	29.947370613243	39
0	373	31.397597792808	40
0	373	31.397597792808	41
0	384	33.134198330127	42
0	384	33.134198330127	43
0	406	34.796166118019	44
0	406	34.796166118019	45
0	431	35.800829638744	46
0	431	35.800829638744	47
0	452	37.027125798183	48
0	452	37.027125798183	49
0	473	38.462209447537	50
0	473	38.462209447537	51
0	498	39.61088577357	52
0	498	39.61088577357	53
0	520	41.373221021396	54
0	520	41.373221021396	55
0	542	43.015032785729	56
0	542	43.015032785729	57
0	567	44.573983578727	58
0	567	44.573983578727	59
0	589	45.853890736372	60
0	589	45.853890736372	61
0	611	47.053786917374	62
0	611	47.053786917374	63
0	633	48.18694994903	64
0	633	48.18694994903	65
0	658	50.146655944426	66
0	658	50.146655944426	67
0	680	51.491635907691	68
0	680	51.491635907691	69
0	683	52.815164423332	70
0	683	52.815164423332	71
0	708	54.711569192138	72
0	708	54.711569192138	73
0	729	56.552692145825	74
0	729	56.552692145825	75
0	751	57.712969067757	76
0	751	57.712969067757	77
0	754	58.910968958651	78
0	754	58.910968958651	79
0	775	60.219577885251	80
0	775	60.219577885251	81
0	797	61.519099153829	82
0	797	61.519099153829	83
0	822	62.554884131317	84
0	822	62.554884131317	85
0	847	63.70895025229	86
0	847	63.70895025229	87
0	872	64.983463627537	88
0	872	64.983463627537	89
0	897	66.944853818295	90
0	897	66.944853818295	91
0	918	68.137055958406	92
0	918	68.137055958406	93
0	939	70.077453509689	94
0	939	70.077453509689	95
0	960	71.45211366915	96
0	960	71.45211366915	97
0	985	72.898581778415	98
0	985	72.898581778415	99
0	1006	74.160097983217	100
0	1006	74.160097983217	101
0	1027	76.001965614285	102
0	1027	76.001965614285	103
0	1037	77.391528566152	104
0	1037	77.391528566152	105
0	1062	79.341124046378	106
0	1062	79.341124046378	107
0	1080	81.192056095477	108
0	1080	81.192056095477	109
0	1102	82.589466424908	110
0	1102	82.589466424908	111
0	1127	84.016843889623	112
0	1127	84.016843889623	113
0	1130	85.591755881689	114
0	1130	85.591755881689	115
0	1148	87.03643769982	116
0	1148	87.03643769982	117
0	1166	89.034717228745	118
0	1166	89.034717228745	119
0	1188	90.277436345133	120
0	1188	90.277436345133	121
0	1209	91.578318055036	122
0	1209	91.578318055036	123
0	1234	92.901941134843	124
0	1234	92.901941134843	125
0	1256	94.480688837373	126
0	1256	94.480688837373	127
0	1266	96.10032183306	128
0	1266	96.10032183306	129
0	1269	97.570094449228	130
0	1269	97.570094449228	131
0	1294	98.76644507215	132
0	1294	98.76644507215	133
0	1316	100.355824716637	134
0	1316	100.355824716637	135
0	1319	101.646940839259	136
0	1319	101.646940839259	137
0	1344	102.766556180796	138
0	1344	102.766556180796	139
0	1369	104.467898129268	140
0	1369	104.467898129268	141
0	1391	106.326351506185	142
0	1391	106.326351506185	143
0	1397	107.539593312206	144
0	1397	107.539593312206	145
0	1400	109.415274395157	146
0	1400	109.415274395157	147
0	1425	110.427325592392	148
0	1425	110.427325592392	149
0	1428	112.34449025734	150
0	1428	112.34449025734	151
0	1438	114.084024888246	152
0	1438	114.084024888246	153
0	1452	115.896278973451	154
0	1452	115.896278973451	155
0	1477	117.399300377598	156
0	1477	117.399300377598	157
0	1492	118.82900780371	158
0	1492	118.82900780371	159
0	1510	120.630609580098	160
0	1510	120.630609580098	161
0	1520	121.756842233489	162
0	1520	121.756842233489	163
0	1534	122.773982996369	164
0	1534	122.773982996369	165
0	1559	124.756247663653	166
0	1559	124.756247663653	167
0	1581	125.993310255945	168
0	1581	125.993310255945	169
0	1603	127.430788997343	170
0	1603	127.430788997343	171
0	1621	128.894992236296	172
0	1621	128.894992236296	173
0	1646	130.616511036191	174
0	1646	130.616511036191	175
0	1664	131.63604977775	176
0	1664	131.63604977775	177
0	1686	133.517344472246	178
0	1686	133.517344472246	179
0	1708	134.965688108947	180
0	1708	134.965688108947	181
0	1726	136.3098731707	182
0	1726	136.3098731707	183
0	1740	137.686419907507	184
0	1740	137.686419907507	185
0	1765	138.823490604541	186
0	1765	138.823490604541	187
0	1780	140.309426488836	188
0	1780	140.309426488836	189
0	1802	141.534738267555	190
0	1802	141.534738267555	191
0	1824	143.459674328116	192
0	1824	143.459674328116	193
0	1846	145.417256006056	194
0	1846	145.417256006056	195
0	1871	146.927148476958	196
0	1871	146.927148476958	197
0	1896	148.796539284305	198
0	1896	148.796539284305	199
0	1921	150.613095149647	200
0	1921	150.613095149647	201
0	1943	151.889704980671	202
0	1943	151.889704980671	203
0	1961	153.045431701716	204
0	1961	153.045431701716	205
0	1971	154.387016871728	206
0	1971	154.387016871728	207
0	1996	156.158547040325	208
0	1996	156.158547040325	209
0	2018	158.011746850813	210
0	2018	158.011746850813	211
0	2040	159.372269550355	212
0	2040	159.372269550355	213
0	2061	160.986608774651	214
0	2061	160.986608774651	215
0	2079	162.438233564625	216
0	2079	162.438233564625	217
0	2104	164.077557365194	218
0	2104	164.077557365194	219
0	2122	165.570124564709	220
0	2122	165.570124564709	221
0	2144	166.999978844093	222
0	2144	166.999978844093	223
0	2150	168.507514304265	224
0	2150	168.507514304265	225
0	2172	169.733185903651	226
0	2172	169.733185903651	227
0	2193	170.740740677358	228
0	2193	170.740740677358	229
0	2215	172.471373616501	230
0	2215	172.471373616501	231
0	2229	173.857125324446	232
0	2229	173.857125324446	233
0	2251	174.980831909941	234
0	2251	174.980831909941	235
0	2273	176.765757272968	236
0	2273	176.765757272968	237
0	2298	177.784939500054	238
0	2298	177.784939500054	239
0	2320	179.038996195903	240
0	2320	179.038996195903	241
0	2323	180.060614656674	242
0	2323	180.060614656674	243
0	2329	181.989012231369	244
0	2329	181.989012231369	245
0	2343	183.811648643127	246
0	2343	183.811648643127	247
0	2368	185.685643509979	248
0	2368	185.685643509979	249
0	2371	186.794296856754	250
0	2371	186.794296856754	251
0	2396	187.928717125923	252
0	2396	187.928717125923	253
0	2418	189.00025910653	254
0	2418	189.00025910653	255
0	2443	190.922740247117	256
0	2443	190.922740247117	257
0	2457	191.957309103587	258
0	2457	191.957309103587	259
0	2479	193.295563191192	260
0	2479	193.295563191192	261
0	2504	195.220510116329	262
0	2504	195.220510116329	263
0	2507	196.966790645167	264
0	2507	196.966790645167	265
0	2532	198.115279525535	266
0	2532	198.115279525535	267
0	2546	199.484572107222	268
0	2546	199.484572107222	269
0	2564	201.46956515407	270
0	2564	201.46956515407	271
0	2586	203.224439268017	272
0	2586	203.224439268017	273
0	2589	204.932478489138	274
0	2589	204.932478489138	275
0	2595	206.928088491333	276
0	2595	206.928088491333	277
0	2616	208.750204161058	278
0	2616	208.750204161058	279
0	2641	210.747339530631	280
0	2641	210.747339530631	281
0	2655	211.82219663264	282
0	2655	211.82219663264	283
0	2677	213.730107767757	284
0	2677	213.730107767757	285
0	2699	215.581696022784	286
0	2699	215.581696022784	287
0	2710	216.859023978717	288
0	2710	216.859023978717	289
0	2728	218.165368870615	290
0	2728	218.165368870615	291
0	2753	219.891581842692	292
0	2753	219.891581842692	293
0	2775	221.193707307118	294
0	2775	221.193707307118	295
0	2785	222.507711809377	296
0	2785	222.507711809377	297
0	2807	224.069971510458	298
0	2807	224.069971510458	299
0	2832	226.064951523922	300
0	2832	226.064951523922	301
0	2835	227.104692326642	302
0	2835	227.104692326642	303
0	2853	228.600726990977	304
0	2853	228.600726990977	305
0	2871	230.432295522436	306
0	2871	230.432295522436	307
0	2892	231.940752988465	308
0	2892	231.940752988465	309
0	2913	233.83161455022	310
0	2913	233.83161455022	311
0	2935	235.119748405431	312
0	2935	235.119748405431	313
0	2949	236.776711340778	314
0	2949	236.776711340778	315
0	2967	237.893182600167	316
0	2967	237.893182600167	317
0	2992	239.860656416294	318
0	2992	239.860656416294	319
1	4	0.110816610738	0
1	4	0.110816610738	1
1	22	1.299410468089	2
1	22	1.299410468089	3
1	50	4.357863044023	4
1	50	4.357863044023	5
1	61	5.535088509986	6
1	61	5.535088509986	7
1	82	7.110265955879	8
1	82	7.110265955879	9
1	104	8.964659780533	10
1	104	8.964659780533	11
1	130	10.781660511514	12
1	130	10.781660511514	13
1	159	11.981433205112	14
1	159	11.981433205112	15
1	176	13.779662238011	16
1	176	13.779662238011	17
1	201	15.188662693502	18
1	201	15.188662693502	19
1	226	17.09385286431	20
1	226	17.09385286431	21
1	247	18.999188540747	22
1	247	18.999188540747	23
1	288	21.54297000873	24
1	288	21.54297000873	25
1	310	23.366628381118	26
1	310	23.366628381118	27
1	317	25.282583565799	28
1	317	25.282583565799	29
1	330	26.6405635356	30
1	330	26.6405635356	31
1	351	29.957470832827	32
1	351	29.957470832827	33
1	410	34.81445294919	34
1	410	34.81445294919	35
1	434	35.814126630865	36
1	434	35.814126630865	37
1	460	37.058380406825	38
1	460	37.058380406825	39
1	476	38.472224866772	40
1	476	38.472224866772	41
1	527	41.395799350019	42
1	527	41.395799350019	43
1	553	43.060331956325	44
1	553	43.060331956325	45
1	570	44.584170612897	46
1	570	44.584170612897	47
1	592	45.866761821248	48
1	592	45.866761821248	49
1	626	47.108546567173	50
1	626	47.108546567173	51
1	636	48.199419022733	52
1	636	48.199419022733	53
1	661	50.157305613603	54
1	661	50.157305613603	55
1	705	52.893830698074	56
1	705	52.893830698074	57
1	711	54.732205738544	58
1	711	54.732205738544	59
1	758	58.937745147344	60
1	758	58.937745147344	61
1	779	60.244983575384	62
1	779	60.244983575384	63
1	812	61.562537183224	64
1	812	61.562537183224	65
1	825	62.569743346252	66
1	825	62.569743346252	67
1	869	63.787228163281	68
1	869	63.787228163281	69
1	875	65.001049414281	70
1	875	65.001049414281	71
1	913	66.994454529077	72
1	913	66.994454529077	73
1	925	68.166373071822	74
1	925	68.166373071822	75
1	943	70.091099261155	76
1	943	70.091099261155	77
1	963	71.465583215907	78
1	963	71.465583215907	79
1	988	72.914397897924	80
1	988	72.914397897924	81
1	1013	74.208533957973	82
1	1013	74.208533957973	83
1	1030	76.030680637588	84
1	1030	76.030680637588	85
1	1041	77.40618397546	86
1	1041	77.40618397546	87
1	1074	79.401259426153	88
1	1074	79.401259426153	89
1	1096	81.241890862334	90
1	1096	81.241890862334	91
1	1105	82.600379419051	92
1	1105	82.600379419051	93
1	1134	85.606200981003	94
1	1134	85.606200981003	95
1	1156	87.060828808171	96
1	1156	87.060828808171	97
1	1181	89.139600409044	98
1	1181	89.139600409044	99
1	1192	90.29889551829	100
1	1192	90.29889551829	101
1	1229	91.641394027372	102
1	1229	91.641394027372	103
1	1259	94.495874030404	104
1	1259	94.495874030404	105
1	1272	97.586703544395	106
1	1272	97.586703544395	107
1	1305	98.821177726716	108
1	1305	98.821177726716	109
1	1330	101.728288474245	110
1	1330	101.728288474245	111
1	1347	102.781510864974	112
1	1347	102.781510864974	113
1	1394	106.345623681703	114
1	1394	106.345623681703	115
1	1404	109.431794605892	116
1	1404	109.431794605892	117
1	1431	112.355525840999	118
1	1431	112.355525840999	119
1	1449	114.135351853006	120
1	1449	114.135351853006	121
1	1459	115.93078564751	122
1	1459	115.93078564751	123
1	1495	118.844981486428	124
1	1495	118.844981486428	125
1	1513	120.651930252793	126
1	1513	120.651930252793	127
1	1523	121.768585148894	128
1	1523	121.768585148894	129
1	1543	122.812342857887	130
1	1543	122.812342857887	131
1	1563	124.778479235201	132
1	1563	124.778479235201	133
1	1584	126.00542784744	134
1	1584	126.00542784744	135
1	1607	127.448357040379	136
1	1607	127.448357040379	137
1	1624	128.91694003478	138
1	1624	128.91694003478	139
1	1661	130.712934248831	140
1	1661	130.712934248831	141
1	1667	131.648998446689	142
1	1667	131.648998446689	143
1	1701	133.570440377561	144
1	1701	133.570440377561	145
1	1716	134.986033513812	146
1	1716	134.986033513812	147
1	1729	136.333007156096	148
1	1729	136.333007156096	149
1	1743	137.70932617426	150
1	1743	137.70932617426	151
1	1784	140.323360887589	152
1	1784	140.323360887589	153
1	1821	141.626695752891	154
1	1821	141.626695752891	155
1	1843	143.529242077339	156
1	1843	143.529242077339	157
1	1866	145.470469669976	158
1	1866	145.470469669976	159
1	1874	146.961867409114	160
1	1874	146.961867409114	161
1	1900	148.817590812578	162
1	1900	148.817590812578	163
1	1936	150.678918961496	164
1	1936	150.678918961496	165
1	1946	151.90053819575	166
1	1946	151.90053819575	167
1	1964	153.057417185876	168
1	1964	153.057417185876	169
1	1974	154.402622351341	170
1	1974	154.402622351341	171
1	1999	156.178271487923	172
1	1999	156.178271487923	173
1	2034	158.06820024386	174
1	2034	158.06820024386	175
1	2044	159.39377307763	176
1	2044	159.39377307763	177
1	2064	160.997406629556	178
1	2064	160.997406629556	179
1	2082	162.45029578412	180
1	2082	162.45029578412	181
1	2107	164.095771528953	182
1	2107	164.095771528953	183
1	2125	165.580311689618	184
1	2125	165.580311689618	185
1	2147	167.016051635441	186
1	2147	167.016051635441	187
1	2175	169.744707886856	188
1	2175	169.744707886856	189
1	2208	170.796349053063	190
1	2208	170.796349053063	191
1	2226	172.510306180232	192
1	2226	172.510306180232	193
1	2232	173.867183038542	194
1	2232	173.867183038542	195
1	2270	175.100229532096	196
1	2270	175.100229532096	197
1	2276	176.777291147046	198
1	2276	176.777291147046	199
1	2301	177.796849919387	200
1	2301	177.796849919387	201
1	2326	180.078023863927	202
1	2326	180.078023863927	203
1	2332	182.011887427991	204
1	2332	182.011887427991	205
1	2356	183.860581365674	206
1	2356	183.860581365674	207
1	2378	186.816792697535	208
1	2378	186.816792697535	209
1	2404	187.957608510139	210
1	2404	187.957608510139	211
1	2421	189.014660733127	212
1	2421	189.014660733127	213
1	2446	190.935215610762	214
1	2446	190.935215610762	215
1	2460	191.988709723763	216
1	2460	191.988709723763	217
1	2486	193.333240813873	218
1	2486	193.333240813873	219
1	2523	197.021639129827	220
1	2523	197.021639129827	221
1	2539	198.144369636276	222
1	2539	198.144369636276	223
1	2549	199.497141784665	224
1	2549	199.497141784665	225
1	2592	204.974733496529	226
1	2592	204.974733496529	227
1	2613	206.991437157218	228
1	2613	206.991437157218	229
1	2619	208.777987413769	230
1	2619	208.777987413769	231
1	2658	211.834899259609	232
1	2658	211.834899259609	233
1	2680	213.742357516384	234
1	2680	213.742357516384	235
1	2713	216.880140384298	236
1	2713	216.880140384298	237
1	2732	218.19463379122	238
1	2732	218.19463379122	239
1	2756	219.906627557257	240
1	2756	219.906627557257	241
1	2778	221.233530829603	242
1	2778	221.233530829603	243
1	2789	222.526100282022	244
1	2789	222.526100282022	245
1	2810	224.081330351135	246
1	2810	224.081330351135	247
1	2847	227.151128727773	248
1	2847	227.151128727773	249
1	2856	228.613259637199	250
1	2856	228.613259637199	251
1	2886	230.494437374316	252
1	2886	230.494437374316	253
1	2895	231.96074211045	254
1	2895	231.96074211045	255
1	2917	233.848342454376	256
1	2917	233.848342454376	257
1	2938	235.13292256855	258
1	2938	235.13292256855	259
1	2953	236.798040952914	260
1	2953	236.798040952914	261
1	2970	237.912481516625	262
1	2970	237.912481516625	263
1	2996	239.87727172083	264
1	2996	239.87727172083	265
2	7	0.127447623789	0
2	7	0.127447623789	1
2	7	0.127447623789	2
2	29	1.316617257702	3
2	29	1.316617257702	4
2	29	1.316617257702	5
2	53	4.370371213121	6
2	53	4.370371213121	7
2	53	4.370371213121	8
2	68	5.552573133856	9
2	68	5.552573133856	10
2	68	5.552573133856	11
2	86	7.124445589595	12
2	86	7.124445589595	13
2	86	7.124445589595	14
2	107	8.981898713316	15
2	107	8.981898713316	16
2	107	8.981898713316	17
2	136	10.802055212166	18
2	136	10.802055212166	19
2	136	10.802055212166	20
2	155	11.966938605574	21
2	155	11.966938605574	22
2	155	11.966938605574	23
2	180	13.793420211657	24
2	180	13.793420211657	25
2	180	13.793420211657	26
2	205	15.204129611571	27
2	205	15.204129611571	28
2	205	15.204129611571	29
2	234	17.126648659039	30
2	234	17.126648659039	31
2	234	17.126648659039	32
2	255	19.011580855593	33
2	255	19.011580855593	34
2	255	19.011580855593	35
2	273	20.278853830993	36
2	273	20.278853830993	37
2	273	20.278853830993	38
2	291	21.562732335944	39
2	291	21.562732335944	40
2	291	21.562732335944	41
2	333	26.652883484624	42
2	333	26.652883484624	43
2	333	26.652883484624	44
2	354	29.982481287974	45
2	354	29.982481287974	46
2	354	29.982481287974	47
2	402	33.217084252663	48
2	402	33.217084252663	49
2	402	33.217084252663	50
2	416	34.827218661541	51
2	416	34.827218661541	52
2	416	34.827218661541	53
2	438	35.840480935995	54
2	438	35.840480935995	55
2	438	35.840480935995	56
2	459	37.051646364022	57
2	459	37.051646364022	58
2	459	37.051646364022	59
2	483	38.484306620501	60
2	483	38.484306620501	61
2	483	38.484306620501	62
2	506	39.638358674743	63
2	506	39.638358674743	64
2	506	39.638358674743	65
2	535	41.411011113969	66
2	535	41.411011113969	67
2	535	41.411011113969	68
2	549	43.046420023195	69
2	549	43.046420023195	70
2	549	43.046420023195	71
2	574	44.603935923697	72
2	574	44.603935923697	73
2	574	44.603935923697	74
2	596	45.876913527535	75
2	596	45.876913527535	76
2	596	45.876913527535	77
2	622	47.09592583114	78
2	622	47.09592583114	79
2	622	47.09592583114	80
2	639	48.20986365995	81
2	639	48.20986365995	82
2	639	48.20986365995	83
2	668	50.18480295348	84
2	668	50.18480295348	85
2	668	50.18480295348	86
2	690	52.862603118972	87
2	690	52.862603118972	88
2	690	52.862603118972	89
2	714	54.748980821556	90
2	714	54.748980821556	91
2	714	54.748980821556	92
2	736	56.587923288936	93
2	736	56.587923288936	94
2	736	56.587923288936	95
2	769	58.958634149505	96
2	769	58.958634149505	97
2	769	58.958634149505	98
2	786	60.256318136137	99
2	786	60.256318136137	100
2	786	60.256318136137	101
2	804	61.548959669903	102
2	804	61.548959669903	103
2	804	61.548959669903	104
2	829	62.580671621311	105
2	829	62.580671621311	106
2	829	62.580671621311	107
2	854	63.744139328028	108
2	854	63.744139328028	109
2	854	63.744139328028	110
2	882	65.013263757342	111
2	882	65.013263757342	112
2	882	65.013263757342	113
2	908	66.982759158581	114
2	908	66.982759158581	115
2	908	66.982759158581	116
2	927	68.174814543073	117
2	927	68.174814543073	118
2	927	68.174814543073	119
2	954	70.122895064986	120
2	954	70.122895064986	121
2	954	70.122895064986	122
2	966	71.477631881601	123
2	966	71.477631881601	124
2	966	71.477631881601	125
2	992	72.92492196495	126
2	992	72.92492196495	127
2	992	72.92492196495	128
2	1014	74.210905094218	129
2	1014	74.210905094218	130
2	1014	74.210905094218	131
2	1033	76.053352040812	132
2	1033	76.053352040812	133
2	1033	76.053352040812	134
2	1045	77.414684589343	135
2	1045	77.414684589343	136
2	1045	77.414684589343	137
2	1069	79.388763357699	138
2	1069	79.388763357699	139
2	1069	79.388763357699	140
2	1087	81.224138215612	141
2	1087	81.224138215612	142
2	1087	81.224138215612	143
2	1112	82.618535814832	144
2	1112	82.618535814832	145
2	1112	82.618535814832	146
2	1140	85.6211171243	147
2	1140	85.6211171243	148
2	1140	85.6211171243	149
2	1155	87.060649935149	150
2	1155	87.060649935149	151
2	1155	87.060649935149	152
2	1177	89.125449206172	153
2	1177	89.125449206172	154
2	1177	89.125449206172	155
2	1198	90.313392391966	156
2	1198	90.313392391966	157
2	1198	90.313392391966	158
2	1216	91.60849740599	159
2	1216	91.60849740599	160
2	1216	91.60849740599	161
2	1241	92.93193098173	162
2	1241	92.93193098173	163
2	1241	92.93193098173	164
2	1262	94.506414681409	165
2	1262	94.506414681409	166
2	1262	94.506414681409	167
2	1276	97.602542617401	168
2	1276	97.602542617401	169
2	1276	97.602542617401	170
2	1301	98.805332224363	171
2	1301	98.805332224363	172
2	1301	98.805332224363	173
2	1326	101.711755675972	174
2	1326	101.711755675972	175
2	1326	101.711755675972	176
2	1350	102.798024100526	177
2	1350	102.798024100526	178
2	1350	102.798024100526	179
2	1376	104.507533712416	180
2	1376	104.507533712416	181
2	1376	104.507533712416	182
2	1410	109.451334425659	183
2	1410	109.451334425659	184
2	1410	109.451334425659	185
2	1434	112.397026226147	186
2	1434	112.397026226147	187
2	1434	112.397026226147	188
2	1445	114.111084080722	189
2	1445	114.111084080722	190
2	1445	114.111084080722	191
2	1473	115.96912681933	192
2	1473	115.96912681933	193
2	1473	115.96912681933	194
2	1484	117.433467998673	195
2	1484	117.433467998673	196
2	1484	117.433467998673	197
2	1498	118.85715634556	198
2	1498	118.85715634556	199
2	1498	118.85715634556	200
2	1516	120.666404165818	201
2	1516	120.666404165818	202
2	1516	120.666404165818	203
2	1526	121.77937016804	204
2	1526	121.77937016804	205
2	1526	121.77937016804	206
2	1542	122.804251649925	207
2	1542	122.804251649925	208
2	1542	122.804251649925	209
2	1570	124.791521068222	210
2	1570	124.791521068222	211
2	1570	124.791521068222	212
2	1588	126.018864810973	213
2	1588	126.018864810973	214
2	1588	126.018864810973	215
2	1613	127.459441391755	216
2	1613	127.459441391755	217
2	1613	127.459441391755	218
2	1627	128.932058862282	219
2	1627	128.932058862282	220
2	1627	128.932058862282	221
2	1653	130.65803776533	222
2	1653	130.65803776533	223
2	1653	130.65803776533	224
2	1671	131.664172219996	225
2	1671	131.664172219996	226
2	1671	131.664172219996	227
2	1694	133.55255393527	228
2	1694	133.55255393527	229
2	1694	133.55255393527	230
2	1717	134.992087191079	231
2	1717	134.992087191079	232
2	1717	134.992087191079	233
2	1736	136.361067148256	234
2	1736	136.361067148256	235
2	1736	136.361067148256	236
2	1746	137.722627526316	237
2	1746	137.722627526316	238
2	1746	137.722627526316	239
2	1790	140.333491759836	240
2	1790	140.333491759836	241
2	1790	140.333491759836	242
2	1817	141.614940849779	243
2	1817	141.614940849779	244
2	1817	141.614940849779	245
2	1832	143.514518700239	246
2	1832	143.514518700239	247
2	1832	143.514518700239	248
2	1854	145.444235708248	249
2	1854	145.444235708248	250
2	1854	145.444235708248	251
2	1877	146.978152938469	252
2	1877	146.978152938469	253
2	1877	146.978152938469	254
2	1904	148.821800362461	255
2	1904	148.821800362461	256
2	1904	148.821800362461	257
2	1928	150.637848943364	258
2	1928	150.637848943364	259
2	1928	150.637848943364	260
2	1950	151.912752471803	261
2	1950	151.912752471803	262
2	1950	151.912752471803	263
2	1967	153.075345802529	264
2	1967	153.075345802529	265
2	1967	153.075345802529	266
2	1977	154.427035030188	267
2	1977	154.427035030188	268
2	1977	154.427035030188	269
2	2006	156.197429128023	270
2	2006	156.197429128023	271
2	2006	156.197429128023	272
2	2025	158.039934428144	273
2	2025	158.039934428144	274
2	2025	158.039934428144	275
2	2050	159.408505853892	276
2	2050	159.408505853892	277
2	2050	159.408505853892	278
2	2067	161.016000987588	279
2	2067	161.016000987588	280
2	2067	161.016000987588	281
2	2085	162.461384444046	282
2	2085	162.461384444046	283
2	2085	162.461384444046	284
2	2115	164.119631439334	285
2	2115	164.119631439334	286
2	2115	164.119631439334	287
2	2128	165.590576660532	288
2	2128	165.590576660532	289
2	2128	165.590576660532	290
2	2158	168.543795804634	291
2	2158	168.543795804634	292
2	2158	168.543795804634	293
2	2178	169.755187561673	294
2	2178	169.755187561673	295
2	2178	169.755187561673	296
2	2200	170.77419891246	297
2	2200	170.77419891246	298
2	2200	170.77419891246	299
2	2222	172.498191290615	300
2	2222	172.498191290615	301
2	2222	172.498191290615	302
2	2235	173.884535886089	303
2	2235	173.884535886089	304
2	2235	173.884535886089	305
2	2266	175.069376728066	306
2	2266	175.069376728066	307
2	2266	175.069376728066	308
2	2280	176.788870922871	309
2	2280	176.788870922871	310
2	2280	176.788870922871	311
2	2304	177.81018122939	312
2	2304	177.81018122939	313
2	2304	177.81018122939	314
2	2336	182.024127314644	315
2	2336	182.024127314644	316
2	2336	182.024127314644	317
2	2350	183.841677640026	318
2	2350	183.841677640026	319
2	2350	183.841677640026	320
2	2380	186.819243907573	321
2	2380	186.819243907573	322
2	2380	186.819243907573	323
2	2405	187.961664780176	324
2	2405	187.961664780176	325
2	2405	187.961664780176	326
2	2428	189.0295109063	327
2	2428	189.0295109063	328
2	2428	189.0295109063	329
2	2449	190.961786089752	330
2	2449	190.961786089752	331
2	2449	190.961786089752	332
2	2463	192.007349746537	333
2	2463	192.007349746537	334
2	2463	192.007349746537	335
2	2494	193.364654987703	336
2	2494	193.364654987703	337
2	2494	193.364654987703	338
2	2514	196.989051162108	339
2	2514	196.989051162108	340
2	2514	196.989051162108	341
2	2540	198.144620730487	342
2	2540	198.144620730487	343
2	2540	198.144620730487	344
2	2552	199.52302826841	345
2	2552	199.52302826841	346
2	2552	199.52302826841	347
2	2572	201.512808378037	348
2	2572	201.512808378037	349
2	2572	201.512808378037	350
2	2607	206.975328635699	351
2	2607	206.975328635699	352
2	2607	206.975328635699	353
2	2622	208.789424192161	354
2	2622	208.789424192161	355
2	2622	208.789424192161	356
2	2661	211.852039247516	357
2	2661	211.852039247516	358
2	2661	211.852039247516	359
2	2683	213.757414111565	360
2	2683	213.757414111565	361
2	2683	213.757414111565	362
2	2716	216.900503597301	363
2	2716	216.900503597301	364
2	2716	216.900503597301	365
2	2738	218.205338013893	366
2	2738	218.205338013893	367
2	2738	218.205338013893	368
2	2759	219.918855520383	369
2	2759	219.918855520383	370
2	2759	219.918855520383	371
2	2781	221.253989482749	372
2	2781	221.253989482749	373
2	2781	221.253989482749	374
2	2793	222.529638542672	375
2	2793	222.529638542672	376
2	2793	222.529638542672	377
2	2814	224.104732357422	378
2	2814	224.104732357422	379
2	2814	224.104732357422	380
2	2842	227.129929549938	381
2	2842	227.129929549938	382
2	2842	227.129929549938	383
2	2859	228.623291724698	384
2	2859	228.623291724698	385
2	2859	228.623291724698	386
2	2878	230.474614634389	387
2	2878	230.474614634389	388
2	2878	230.474614634389	389
2	2903	231.982988140162	390
2	2903	231.982988140162	391
2	2903	231.982988140162	392
2	2927	233.869149184143	393
2	2927	233.869149184143	394
2	2927	233.869149184143	395
2	2945	235.161567543341	396
2	2945	235.161567543341	397
2	2945	235.161567543341	398
2	2959	236.82093326069	399
2	2959	236.82093326069	400
2	2959	236.82093326069	401
2	2973	237.926957320798	402
2	2973	237.926957320798	403
2	2973	237.926957320798	404
2	3003	239.894130735279	405
2	3003	239.894130735279	406
2	3003	239.894130735279	407
3	11	0.141312140479	0
3	11	0.141312140479	1
3	11	0.141312140479	2
3	23	1.304971063913	3
3	23	1.304971063913	4
3	23	1.304971063913	5
3	60	5.532345317038	6
3	60	5.532345317038	7
3	60	5.532345317038	8
3	83	7.114940109837	9
3	83	7.114940109837	10
3	83	7.114940109837	11
3	111	8.994396131956	12
3	111	8.994396131956	13
3	111	8.994396131956	14
3	129	10.777703306904	15
3	129	10.777703306904	16
3	129	10.777703306904	17
3	151	11.956807577513	18
3	151	11.956807577513	19
3	151	11.956807577513	20
3	177	13.785443401025	21
3	177	13.785443401025	22
3	177	13.785443401025	23
3	204	15.202275664965	24
3	204	15.202275664965	25
3	204	15.202275664965	26
3	229	17.10687860845	27
3	229	17.10687860845	28
3	229	17.10687860845	29
3	248	19.000082304807	30
3	248	19.000082304807	31
3	248	19.000082304807	32
3	269	20.250203228626	33
3	269	20.250203228626	34
3	269	20.250203228626	35
3	296	21.576104830854	36
3	296	21.576104830854	37
3	296	21.576104830854	38
3	316	25.276796386517	39
3	316	25.276796386517	40
3	316	25.276796386517	41
3	337	26.683108485792	42
3	337	26.683108485792	43
3	337	26.683108485792	44
3	366	30.061719207788	45
3	366	30.061719207788	46
3	366	30.061719207788	47
3	376	31.414051634358	48
3	376	31.414051634358	49
3	376	31.414051634358	50
3	387	33.147528733908	51
3	387	33.147528733908	52
3	387	33.147528733908	53
3	409	34.81157615309	54
3	409	34.81157615309	55
3	409	34.81157615309	56
3	437	35.830564443574	57
3	437	35.830564443574	58
3	437	35.830564443574	59
3	455	37.039621715842	60
3	455	37.039621715842	61
3	455	37.039621715842	62
3	477	38.472342701779	63
3	477	38.472342701779	64
3	477	38.472342701779	65
3	501	39.62216455948	66
3	501	39.62216455948	67
3	501	39.62216455948	68
3	523	41.384135369292	69
3	523	41.384135369292	70
3	523	41.384135369292	71
3	545	43.027031332152	72
3	545	43.027031332152	73
3	545	43.027031332152	74
3	573	44.594966325159	75
3	573	44.594966325159	76
3	573	44.594966325159	77
3	593	45.875630348263	78
3	593	45.875630348263	79
3	593	45.875630348263	80
3	614	47.067801502384	81
3	614	47.067801502384	82
3	614	47.067801502384	83
3	640	48.217193307911	84
3	640	48.217193307911	85
3	640	48.217193307911	86
3	662	50.158920548052	87
3	662	50.158920548052	88
3	662	50.158920548052	89
3	686	52.84203659458	90
3	686	52.84203659458	91
3	686	52.84203659458	92
3	718	54.786773026543	93
3	718	54.786773026543	94
3	718	54.786773026543	95
3	732	56.563010169656	96
3	732	56.563010169656	97
3	732	56.563010169656	98
3	757	58.933458379934	99
3	757	58.933458379934	100
3	757	58.933458379934	101
3	778	60.237229538441	102
3	778	60.237229538441	103
3	778	60.237229538441	104
3	800	61.535806291488	105
3	800	61.535806291488	106
3	800	61.535806291488	107
3	826	62.578674738313	108
3	826	62.578674738313	109
3	826	62.578674738313	110
3	850	63.723130386088	111
3	850	63.723130386088	112
3	850	63.723130386088	113
3	876	65.001604776791	114
3	876	65.001604776791	115
3	876	65.001604776791	116
3	900	66.956155337037	117
3	900	66.956155337037	118
3	900	66.956155337037	119
3	921	68.153085689703	120
3	921	68.153085689703	121
3	921	68.153085689703	122
3	942	70.088513633468	123
3	942	70.088513633468	124
3	942	70.088513633468	125
3	971	71.496287904416	126
3	971	71.496287904416	127
3	971	71.496287904416	128
3	989	72.918547005751	129
3	989	72.918547005751	130
3	989	72.918547005751	131
3	1009	74.19587020167	132
3	1009	74.19587020167	133
3	1009	74.19587020167	134
3	1040	77.401956451156	135
3	1040	77.401956451156	136
3	1040	77.401956451156	137
3	1065	79.377679158253	138
3	1065	79.377679158253	139
3	1065	79.377679158253	140
3	1083	81.202091893868	141
3	1083	81.202091893868	142
3	1083	81.202091893868	143
3	1106	82.600536578796	144
3	1106	82.600536578796	145
3	1106	82.600536578796	146
3	1133	85.604388699974	147
3	1133	85.604388699974	148
3	1133	85.604388699974	149
3	1151	87.049159382288	150
3	1151	87.049159382288	151
3	1151	87.049159382288	152
3	1169	89.09002493995	153
3	1169	89.09002493995	154
3	1169	89.09002493995	155
3	1191	90.296107797267	156
3	1191	90.296107797267	157
3	1191	90.296107797267	158
3	1212	91.592099384094	159
3	1212	91.592099384094	160
3	1212	91.592099384094	161
3	1237	92.914384927906	162
3	1237	92.914384927906	163
3	1237	92.914384927906	164
3	1273	97.592713770826	165
3	1273	97.592713770826	166
3	1273	97.592713770826	167
3	1297	98.789497986306	168
3	1297	98.789497986306	169
3	1297	98.789497986306	170
3	1322	101.691406714417	171
3	1322	101.691406714417	172
3	1322	101.691406714417	173
3	1358	102.825352247581	174
3	1358	102.825352247581	175
3	1358	102.825352247581	176
3	1372	104.490577863566	177
3	1372	104.490577863566	178
3	1372	104.490577863566	179
3	1403	109.427594808476	180
3	1403	109.427594808476	181
3	1403	109.427594808476	182
3	1441	114.094507652854	183
3	1441	114.094507652854	184
3	1441	114.094507652854	185
3	1455	115.907044123617	186
3	1455	115.907044123617	187
3	1455	115.907044123617	188
3	1480	117.413544341086	189
3	1480	117.413544341086	190
3	1480	117.413544341086	191
3	1502	118.88441585615	192
3	1502	118.88441585615	193
3	1502	118.88441585615	194
3	1530	121.817888096651	195
3	1530	121.817888096651	196
3	1530	121.817888096651	197
3	1537	122.788065928787	198
3	1537	122.788065928787	199
3	1537	122.788065928787	200
3	1562	124.77101048702	201
3	1562	124.77101048702	202
3	1562	124.77101048702	203
3	1587	126.017903335978	204
3	1587	126.017903335978	205
3	1587	126.017903335978	206
3	1606	127.44659082806	207
3	1606	127.44659082806	208
3	1606	127.44659082806	209
3	1632	128.944680781816	210
3	1632	128.944680781816	211
3	1632	128.944680781816	212
3	1649	130.639204744361	213
3	1649	130.639204744361	214
3	1649	130.639204744361	215
3	1670	131.660989519095	216
3	1670	131.660989519095	217
3	1670	131.660989519095	218
3	1689	133.537349648295	219
3	1689	133.537349648295	220
3	1689	133.537349648295	221
3	1711	134.975710223772	222
3	1711	134.975710223772	223
3	1711	134.975710223772	224
3	1730	136.338060807582	225
3	1730	136.338060807582	226
3	1730	136.338060807582	227
3	1750	137.737743355488	228
3	1750	137.737743355488	229
3	1750	137.737743355488	230
3	1768	138.837065223732	231
3	1768	138.837065223732	232
3	1768	138.837065223732	233
3	1783	140.322783808369	234
3	1783	140.322783808369	235
3	1783	140.322783808369	236
3	1805	141.550548864229	237
3	1805	141.550548864229	238
3	1805	141.550548864229	239
3	1827	143.493624487758	240
3	1827	143.493624487758	241
3	1827	143.493624487758	242
3	1849	145.429141072475	243
3	1849	145.429141072475	244
3	1849	145.429141072475	245
3	1882	146.9981117284	246
3	1882	146.9981117284	247
3	1882	146.9981117284	248
3	1899	148.811656926343	249
3	1899	148.811656926343	250
3	1899	148.811656926343	251
3	1924	150.625873194685	252
3	1924	150.625873194685	253
3	1924	150.625873194685	254
3	1947	151.909211561478	255
3	1947	151.909211561478	256
3	1947	151.909211561478	257
3	1981	154.443747523798	258
3	1981	154.443747523798	259
3	1981	154.443747523798	260
3	2000	156.184289800522	261
3	2000	156.184289800522	262
3	2000	156.184289800522	263
3	2021	158.023875195036	264
3	2021	158.023875195036	265
3	2021	158.023875195036	266
3	2043	159.387066139068	267
3	2043	159.387066139068	268
3	2043	159.387066139068	269
3	2071	161.070415066327	270
3	2071	161.070415066327	271
3	2071	161.070415066327	272
3	2089	162.477691731209	273
3	2089	162.477691731209	274
3	2089	162.477691731209	275
3	2110	164.108920337373	276
3	2110	164.108920337373	277
3	2110	164.108920337373	278
3	2129	165.595269023888	279
3	2129	165.595269023888	280
3	2129	165.595269023888	281
3	2153	168.519369906279	282
3	2153	168.519369906279	283
3	2153	168.519369906279	284
3	2182	169.774462278239	285
3	2182	169.774462278239	286
3	2182	169.774462278239	287
3	2196	170.759592766125	288
3	2196	170.759592766125	289
3	2196	170.759592766125	290
3	2218	172.486877697676	291
3	2218	172.486877697676	292
3	2218	172.486877697676	293
3	2236	173.894096706414	294
3	2236	173.894096706414	295
3	2236	173.894096706414	296
3	2254	175.011307774761	297
3	2254	175.011307774761	298
3	2254	175.011307774761	299
3	2277	176.785374138147	300
3	2277	176.785374138147	301
3	2277	176.785374138147	302
3	2305	177.814323191224	303
3	2305	177.814323191224	304
3	2305	177.814323191224	305
3	2333	182.01493972419	306
3	2333	182.01493972419	307
3	2333	182.01493972419	308
3	2346	183.827309958543	309
3	2346	183.827309958543	310
3	2346	183.827309958543	311
3	2374	186.805013541666	312
3	2374	186.805013541666	313
3	2374	186.805013541666	314
3	2399	187.945176354681	315
3	2399	187.945176354681	316
3	2399	187.945176354681	317
3	2422	189.018330620729	318
3	2422	189.018330620729	319
3	2422	189.018330620729	320
3	2453	190.986273353478	321
3	2453	190.986273353478	322
3	2453	190.986273353478	323
3	2467	192.02821247736	324
3	2467	192.02821247736	325
3	2467	192.02821247736	326
3	2482	193.319296621934	327
3	2482	193.319296621934	328
3	2482	193.319296621934	329
3	2510	196.977615552738	330
3	2510	196.977615552738	331
3	2510	196.977615552738	332
3	2535	198.125887361104	333
3	2535	198.125887361104	334
3	2535	198.125887361104	335
3	2556	199.546695943503	336
3	2556	199.546695943503	337
3	2556	199.546695943503	338
3	2567	201.495446094806	339
3	2567	201.495446094806	340
3	2567	201.495446094806	341
3	2598	206.949638783774	342
3	2598	206.949638783774	343
3	2598	206.949638783774	344
3	2623	208.798254381438	345
3	2623	208.798254381438	346
3	2623	208.798254381438	347
3	2644	210.767678174032	348
3	2644	210.767678174032	349
3	2644	210.767678174032	350
3	2665	211.874153432011	351
3	2665	211.874153432011	352
3	2665	211.874153432011	353
3	2687	213.793531517873	354
3	2687	213.793531517873	355
3	2687	213.793531517873	356
3	2702	215.596303799705	357
3	2702	215.596303799705	358
3	2702	215.596303799705	359
3	2731	218.190285261862	360
3	2731	218.190285261862	361
3	2731	218.190285261862	362
3	2764	219.945991222545	363
3	2764	219.945991222545	364
3	2764	219.945991222545	365
3	2788	222.518214225908	366
3	2788	222.518214225908	367
3	2788	222.518214225908	368
3	2813	224.103253718012	369
3	2813	224.103253718012	370
3	2813	224.103253718012	371
3	2838	227.118942346854	372
3	2838	227.118942346854	373
3	2838	227.118942346854	374
3	2863	228.641588504941	375
3	2863	228.641588504941	376
3	2863	228.641588504941	377
3	2874	230.460941188001	378
3	2874	230.460941188001	379
3	2874	230.460941188001	380
3	2896	231.969256964166	381
3	2896	231.969256964166	382
3	2896	231.969256964166	383
3	2916	233.842105684526	384
3	2916	233.842105684526	385
3	2916	233.842105684526	386
3	2941	235.146326453101	387
3	2941	235.146326453101	388
3	2941	235.146326453101	389
3	2952	236.798027996605	390
3	2952	236.798027996605	391
3	2952	236.798027996605	392
3	2977	237.940768833646	393
3	2977	237.940768833646	394
3	2977	237.940768833646	395
3	2995	239.874274312288	396
3	2995	239.874274312288	397
3	2995	239.874274312288	398
4	15	0.152589912208	0
4	15	0.152589912208	1
4	15	0.152589912208	2
4	33	1.330357836841	3
4	33	1.330357836841	4
4	33	1.330357836841	5
4	67	5.548943791885	6
4	67	5.548943791885	7
4	67	5.548943791885	8
4	90	7.130518338174	9
4	90	7.130518338174	10
4	90	7.130518338174	11
4	119	9.055312433507	12
4	119	9.055312433507	13
4	119	9.055312433507	14
4	144	10.832975853618	15
4	144	10.832975853618	16
4	144	10.832975853618	17
4	160	11.982773038391	18
4	160	11.982773038391	19
4	160	11.982773038391	20
4	188	13.808852778244	21
4	188	13.808852778244	22
4	188	13.808852778244	23
4	209	15.213402566235	24
4	209	15.213402566235	25
4	209	15.213402566235	26
4	233	17.118823102402	27
4	233	17.118823102402	28
4	233	17.118823102402	29
4	254	19.011057289456	30
4	254	19.011057289456	31
4	254	19.011057289456	32
4	281	20.304865754819	33
4	281	20.304865754819	34
4	281	20.304865754819	35
4	303	21.597535633088	36
4	303	21.597535633088	37
4	303	21.597535633088	38
4	321	25.289948344038	39
4	321	25.289948344038	40
4	321	25.289948344038	41
4	341	26.707140081719	42
4	341	26.707140081719	43
4	341	26.707140081719	44
4	362	30.037921093637	45
4	362	30.037921093637	46
4	362	30.037921093637	47
4	380	31.452261107449	48
4	380	31.452261107449	49
4	380	31.452261107449	50
4	391	33.167422220811	51
4	391	33.167422220811	52
4	391	33.167422220811	53
4	417	34.836837835015	54
4	417	34.836837835015	55
4	417	34.836837835015	56
4	442	35.842868563573	57
4	442	35.842868563573	58
4	442	35.842868563573	59
4	466	37.093287072738	60
4	466	37.093287072738	61
4	466	37.093287072738	62
4	488	38.497559693617	63
4	488	38.497559693617	64
4	488	38.497559693617	65
4	505	39.633508807532	66
4	505	39.633508807532	67
4	505	39.633508807532	68
4	528	41.39606635237	69
4	528	41.39606635237	70
4	528	41.39606635237	71
4	560	43.12888970573	72
4	560	43.12888970573	73
4	560	43.12888970573	74
4	585	44.630021957755	75
4	585	44.630021957755	76
4	585	44.630021957755	77
4	600	45.885926174289	78
4	600	45.885926174289	79
4	600	45.885926174289	80
4	618	47.083129090457	81
4	618	47.083129090457	82
4	618	47.083129090457	83
4	647	48.231151502122	84
4	647	48.231151502122	85
4	647	48.231151502122	86
4	676	50.213351075038	87
4	676	50.213351075038	88
4	676	50.213351075038	89
4	691	52.866923738437	90
4	691	52.866923738437	91
4	691	52.866923738437	92
4	722	54.803806252752	93
4	722	54.803806252752	94
4	722	54.803806252752	95
4	741	56.600201759799	96
4	741	56.600201759799	97
4	741	56.600201759799	98
4	762	58.944312644876	99
4	762	58.944312644876	100
4	762	58.944312644876	101
4	785	60.255734855984	102
4	785	60.255734855984	103
4	785	60.255734855984	104
4	805	61.551934123071	105
4	805	61.551934123071	106
4	805	61.551934123071	107
4	836	62.593819635171	108
4	836	62.593819635171	109
4	836	62.593819635171	110
4	855	63.749986591909	111
4	855	63.749986591909	112
4	855	63.749986591909	113
4	883	65.016348476074	114
4	883	65.016348476074	115
4	883	65.016348476074	116
4	904	66.968933065414	117
4	904	66.968933065414	118
4	904	66.968933065414	119
4	926	68.16846642059	120
4	926	68.16846642059	121
4	926	68.16846642059	122
4	949	70.106952791307	123
4	949	70.106952791307	124
4	949	70.106952791307	125
4	975	71.505045113322	126
4	975	71.505045113322	127
4	975	71.505045113322	128
4	996	72.933098716605	129
4	996	72.933098716605	130
4	996	72.933098716605	131
4	1015	74.216927693927	132
4	1015	74.216927693927	133
4	1015	74.216927693927	134
4	1048	77.423771171665	135
4	1048	77.423771171665	136
4	1048	77.423771171665	137
4	1070	79.394109501365	138
4	1070	79.394109501365	139
4	1070	79.394109501365	140
4	1088	81.228980510735	141
4	1088	81.228980510735	142
4	1088	81.228980510735	143
4	1117	82.635037898612	144
4	1117	82.635037898612	145
4	1117	82.635037898612	146
4	1144	85.634921880523	147
4	1144	85.634921880523	148
4	1144	85.634921880523	149
4	1157	87.062780727599	150
4	1157	87.062780727599	151
4	1157	87.062780727599	152
4	1173	89.108777975061	153
4	1173	89.108777975061	154
4	1173	89.108777975061	155
4	1202	90.331907339911	156
4	1202	90.331907339911	157
4	1202	90.331907339911	158
4	1220	91.621026501238	159
4	1220	91.621026501238	160
4	1220	91.621026501238	161
4	1246	92.943888471061	162
4	1246	92.943888471061	163
4	1246	92.943888471061	164
4	1280	97.606510167676	165
4	1280	97.606510167676	166
4	1280	97.606510167676	167
4	1312	98.849176793996	168
4	1312	98.849176793996	169
4	1312	98.849176793996	170
4	1332	101.736903108794	171
4	1332	101.736903108794	172
4	1332	101.736903108794	173
4	1359	102.835221252908	174
4	1359	102.835221252908	175
4	1359	102.835221252908	176
4	1377	104.511378029002	177
4	1377	104.511378029002	178
4	1377	104.511378029002	179
4	1418	109.474038821185	180
4	1418	109.474038821185	181
4	1418	109.474038821185	182
4	1460	115.932865818415	183
4	1460	115.932865818415	184
4	1460	115.932865818415	185
4	1485	117.436303419879	186
4	1485	117.436303419879	187
4	1485	117.436303419879	188
4	1506	118.925023538746	189
4	1506	118.925023538746	190
4	1506	118.925023538746	191
4	1541	122.804204764828	192
4	1541	122.804204764828	193
4	1541	122.804204764828	194
4	1567	124.785802419008	195
4	1567	124.785802419008	196
4	1567	124.785802419008	197
4	1595	126.040519192936	198
4	1595	126.040519192936	199
4	1595	126.040519192936	200
4	1617	127.47120504823	201
4	1617	127.47120504823	202
4	1617	127.47120504823	203
4	1639	128.982908499668	204
4	1639	128.982908499668	205
4	1639	128.982908499668	206
4	1654	130.665652426438	207
4	1654	130.665652426438	208
4	1654	130.665652426438	209
4	1678	131.686458769726	210
4	1678	131.686458769726	211
4	1678	131.686458769726	212
4	1693	133.547732394718	213
4	1693	133.547732394718	214
4	1693	133.547732394718	215
4	1715	134.985868694013	216
4	1715	134.985868694013	217
4	1715	134.985868694013	218
4	1754	137.748447345804	219
4	1754	137.748447345804	220
4	1754	137.748447345804	221
4	1772	138.853074308092	222
4	1772	138.853074308092	223
4	1772	138.853074308092	224
4	1798	140.379273983256	225
4	1798	140.379273983256	226
4	1798	140.379273983256	227
4	1809	141.573420359659	228
4	1809	141.573420359659	229
4	1809	141.573420359659	230
4	1831	143.507234849713	231
4	1831	143.507234849713	232
4	1831	143.507234849713	233
4	1853	145.441547530203	234
4	1853	145.441547530203	235
4	1853	145.441547530203	236
4	1889	147.011687703939	237
4	1889	147.011687703939	238
4	1889	147.011687703939	239
4	1907	148.827749505079	240
4	1907	148.827749505079	241
4	1907	148.827749505079	242
4	1929	150.644511896582	243
4	1929	150.644511896582	244
4	1929	150.644511896582	245
4	1954	151.920179926209	246
4	1954	151.920179926209	247
4	1954	151.920179926209	248
4	1985	154.456051065392	249
4	1985	154.456051065392	250
4	1985	154.456051065392	251
4	2010	156.208182014729	252
4	2010	156.208182014729	253
4	2010	156.208182014729	254
4	2026	158.044589268517	255
4	2026	158.044589268517	256
4	2026	158.044589268517	257
4	2051	159.409006203279	258
4	2051	159.409006203279	259
4	2051	159.409006203279	260
4	2075	161.081087138603	261
4	2075	161.081087138603	262
4	2075	161.081087138603	263
4	2094	162.489809570092	264
4	2094	162.489809570092	265
4	2094	162.489809570092	266
4	2114	164.119240805504	267
4	2114	164.119240805504	268
4	2114	164.119240805504	269
4	2136	165.615208737389	270
4	2136	165.615208737389	271
4	2136	165.615208737389	272
4	2157	168.535536554928	273
4	2157	168.535536554928	274
4	2157	168.535536554928	275
4	2186	169.796208218869	276
4	2186	169.796208218869	277
4	2186	169.796208218869	278
4	2204	170.786080817946	279
4	2204	170.786080817946	280
4	2204	170.786080817946	281
4	2243	173.91833719868	282
4	2243	173.91833719868	283
4	2243	173.91833719868	284
4	2258	175.03756136392	285
4	2258	175.03756136392	286
4	2258	175.03756136392	287
4	2287	176.802988679437	288
4	2287	176.802988679437	289
4	2287	176.802988679437	290
4	2312	177.827764544293	291
4	2312	177.827764544293	292
4	2312	177.827764544293	293
4	2355	183.855803675739	294
4	2355	183.855803675739	295
4	2355	183.855803675739	296
4	2379	186.816984101485	297
4	2379	186.816984101485	298
4	2379	186.816984101485	299
4	2403	187.957305890902	300
4	2403	187.957305890902	301
4	2403	187.957305890902	302
4	2432	189.051102795243	303
4	2432	189.051102795243	304
4	2432	189.051102795243	305
4	2472	192.063823490276	306
4	2472	192.063823490276	307
4	2472	192.063823490276	308
4	2487	193.333251071657	309
4	2487	193.333251071657	310
4	2487	193.333251071657	311
4	2518	197.005939733058	312
4	2518	197.005939733058	313
4	2518	197.005939733058	314
4	2560	199.561975595823	315
4	2560	199.561975595823	316
4	2560	199.561975595823	317
4	2571	201.506135223315	318
4	2571	201.506135223315	319
4	2571	201.506135223315	320
4	2602	206.961511556571	321
4	2602	206.961511556571	322
4	2602	206.961511556571	323
4	2631	208.81127941459	324
4	2631	208.81127941459	325
4	2631	208.81127941459	326
4	2648	210.77933373094	327
4	2648	210.77933373094	328
4	2648	210.77933373094	329
4	2669	211.910348420342	330
4	2669	211.910348420342	331
4	2669	211.910348420342	332
4	2691	213.808072952853	333
4	2691	213.808072952853	334
4	2691	213.808072952853	335
4	2706	215.609632073878	336
4	2706	215.609632073878	337
4	2706	215.609632073878	338
4	2724	216.940668705562	339
4	2724	216.940668705562	340
4	2724	216.940668705562	341
4	2739	218.209495317149	342
4	2739	218.209495317149	343
4	2739	218.209495317149	344
4	2768	219.948212248406	345
4	2768	219.948212248406	346
4	2768	219.948212248406	347
4	2794	222.535282249274	348
4	2794	222.535282249274	349
4	2794	222.535282249274	350
4	2818	224.113851388765	351
4	2818	224.113851388765	352
4	2818	224.113851388765	353
4	2846	227.146253496036	354
4	2846	227.146253496036	355
4	2846	227.146253496036	356
4	2867	228.658423041505	357
4	2867	228.658423041505	358
4	2867	228.658423041505	359
4	2879	230.47823131842	360
4	2879	230.47823131842	361
4	2879	230.47823131842	362
4	2902	231.98016651153	363
4	2902	231.98016651153	364
4	2902	231.98016651153	365
4	2921	233.853790117232	366
4	2921	233.853790117232	367
4	2921	233.853790117232	368
4	2960	236.826385955474	369
4	2960	236.826385955474	370
4	2960	236.826385955474	371
4	2982	237.96156339626	372
4	2982	237.96156339626	373
4	2982	237.96156339626	374
4	3000	239.884964597933	375
4	3000	239.884964597933	376
4	3000	239.884964597933	377
5	34	1.333434125535	0
5	34	1.333434125535	1
5	34	1.333434125535	2
5	75	5.57472499907	3
5	75	5.57472499907	4
5	75	5.57472499907	5
5	97	7.143722777512	6
5	97	7.143722777512	7
5	97	7.143722777512	8
5	112	8.994737967849	9
5	112	8.994737967849	10
5	112	8.994737967849	11
5	140	10.819067014541	12
5	140	10.819067014541	13
5	140	10.819067014541	14
5	167	11.998000592086	15
5	167	11.998000592086	16
5	167	11.998000592086	17
5	187	13.805836288192	18
5	187	13.805836288192	19
5	187	13.805836288192	20
5	216	15.239408368245	21
5	216	15.239408368245	22
5	216	15.239408368245	23
5	262	19.024918196765	24
5	262	19.024918196765	25
5	262	19.024918196765	26
5	277	20.291495026285	27
5	277	20.291495026285	28
5	277	20.291495026285	29
5	295	21.57534045301	30
5	295	21.57534045301	31
5	295	21.57534045301	32
5	358	30.023888312965	33
5	358	30.023888312965	34
5	358	30.023888312965	35
5	398	33.202277042871	36
5	398	33.202277042871	37
5	398	33.202277042871	38
5	421	34.841432166117	39
5	421	34.841432166117	40
5	421	34.841432166117	41
5	487	38.497310652325	42
5	487	38.497310652325	43
5	487	38.497310652325	44
5	514	39.649184213547	45
5	514	39.649184213547	46
5	514	39.649184213547	47
5	534	41.407445704652	48
5	534	41.407445704652	49
5	534	41.407445704652	50
5	556	43.101394034578	51
5	556	43.101394034578	52
5	556	43.101394034578	53
5	581	44.617325013287	54
5	581	44.617325013287	55
5	581	44.617325013287	56
5	604	45.887921385463	57
5	604	45.887921385463	58
5	604	45.887921385463	59
5	629	47.12956220494	60
5	629	47.12956220494	61
5	629	47.12956220494	62
5	652	48.244075745391	63
5	652	48.244075745391	64
5	652	48.244075745391	65
5	672	50.19711090141	66
5	672	50.19711090141	67
5	672	50.19711090141	68
5	698	52.87748684362	69
5	698	52.87748684362	70
5	698	52.87748684362	71
5	740	56.598978206095	72
5	740	56.598978206095	73
5	740	56.598978206095	74
5	793	60.27117798576	75
5	793	60.27117798576	76
5	793	60.27117798576	77
5	814	61.566122778399	78
5	814	61.566122778399	79
5	814	61.566122778399	80
5	841	62.607441885507	81
5	841	62.607441885507	82
5	841	62.607441885507	83
5	862	63.762427302728	84
5	862	63.762427302728	85
5	862	63.762427302728	86
5	887	65.024476043749	87
5	887	65.024476043749	88
5	887	65.024476043749	89
5	970	71.487921109951	90
5	970	71.487921109951	91
5	970	71.487921109951	92
5	1056	77.436522967162	93
5	1056	77.436522967162	94
5	1056	77.436522967162	95
5	1092	81.234372011039	96
5	1092	81.234372011039	97
5	1092	81.234372011039	98
5	1116	82.631672136163	99
5	1116	82.631672136163	100
5	1116	82.631672136163	101
5	1184	89.16966932266	102
5	1184	89.16966932266	103
5	1184	89.16966932266	104
5	1221	91.629755901378	105
5	1221	91.629755901378	106
5	1221	91.629755901378	107
5	1245	92.943130663626	108
5	1245	92.943130663626	109
5	1245	92.943130663626	110
5	1290	97.639571045686	111
5	1290	97.639571045686	112
5	1290	97.639571045686	113
5	1306	98.823329429681	114
5	1306	98.823329429681	115
5	1306	98.823329429681	116
5	1331	101.729315882389	117
5	1331	101.729315882389	118
5	1331	101.729315882389	119
5	1354	102.814644270419	120
5	1354	102.814644270419	121
5	1354	102.814644270419	122
5	1385	104.525189937389	123
5	1385	104.525189937389	124
5	1385	104.525189937389	125
5	1414	109.461450101002	126
5	1414	109.461450101002	127
5	1414	109.461450101002	128
5	1467	115.957137545622	129
5	1467	115.957137545622	130
5	1467	115.957137545622	131
5	1555	122.853368178179	132
5	1555	122.853368178179	133
5	1555	122.853368178179	134
5	1574	124.797079396586	135
5	1574	124.797079396586	136
5	1574	124.797079396586	137
5	1599	126.056939461505	138
5	1599	126.056939461505	139
5	1599	126.056939461505	140
5	1631	128.943921393415	141
5	1631	128.943921393415	142
5	1631	128.943921393415	143
5	1682	131.698720556795	144
5	1682	131.698720556795	145
5	1682	131.698720556795	146
5	1704	133.587867198121	147
5	1704	133.587867198121	148
5	1704	133.587867198121	149
5	1758	137.772376596304	150
5	1758	137.772376596304	151
5	1758	137.772376596304	152
5	1776	138.874262751523	153
5	1776	138.874262751523	154
5	1776	138.874262751523	155
5	1794	140.367551911581	156
5	1794	140.367551911581	157
5	1794	140.367551911581	158
5	1813	141.590932499142	159
5	1813	141.590932499142	160
5	1813	141.590932499142	161
5	1836	143.51912053608	162
5	1836	143.51912053608	163
5	1836	143.51912053608	164
5	1861	145.459874992233	165
5	1861	145.459874992233	166
5	1861	145.459874992233	167
5	1881	146.99431952299	168
5	1881	146.99431952299	169
5	1881	146.99431952299	170
5	1914	148.838584146423	171
5	1914	148.838584146423	172
5	1914	148.838584146423	173
5	1939	150.69256614716	174
5	1939	150.69256614716	175
5	1939	150.69256614716	176
5	1990	154.475176659283	177
5	1990	154.475176659283	178
5	1990	154.475176659283	179
5	2011	156.209671555817	180
5	2011	156.209671555817	181
5	2011	156.209671555817	182
5	2033	158.062315913673	183
5	2033	158.062315913673	184
5	2033	158.062315913673	185
5	2090	162.48369886523	186
5	2090	162.48369886523	187
5	2090	162.48369886523	188
5	2140	165.62750797745	189
5	2140	165.62750797745	190
5	2140	165.62750797745	191
5	2168	168.578221488841	192
5	2168	168.578221488841	193
5	2168	168.578221488841	194
5	2209	170.796787009689	195
5	2209	170.796787009689	196
5	2209	170.796787009689	197
5	2247	173.93057899592	198
5	2247	173.93057899592	199
5	2247	173.93057899592	200
5	2262	175.053345401658	201
5	2262	175.053345401658	202
5	2262	175.053345401658	203
5	2291	176.815540446469	204
5	2291	176.815540446469	205
5	2291	176.815540446469	206
5	2316	177.841465556871	207
5	2316	177.841465556871	208
5	2316	177.841465556871	209
5	2354	183.85470599891	210
5	2354	183.85470599891	211
5	2354	183.85470599891	212
5	2389	186.830104347563	213
5	2389	186.830104347563	214
5	2389	186.830104347563	215
5	2414	187.981000501865	216
5	2414	187.981000501865	217
5	2414	187.981000501865	218
5	2433	189.05351177485	219
5	2433	189.05351177485	220
5	2433	189.05351177485	221
5	2471	192.058141223248	222
5	2471	192.058141223248	223
5	2471	192.058141223248	224
5	2493	193.359323711111	225
5	2493	193.359323711111	226
5	2493	193.359323711111	227
5	2528	197.052871389888	228
5	2528	197.052871389888	229
5	2528	197.052871389888	230
5	2580	201.524377962361	231
5	2580	201.524377962361	232
5	2580	201.524377962361	233
5	2630	208.808800573253	234
5	2630	208.808800573253	235
5	2630	208.808800573253	236
5	2673	211.92469334394	237
5	2673	211.92469334394	238
5	2673	211.92469334394	239
5	2695	213.819377977878	240
5	2695	213.819377977878	241
5	2695	213.819377977878	242
5	2720	216.924643533011	243
5	2720	216.924643533011	244
5	2720	216.924643533011	245
5	2747	218.225586205856	246
5	2747	218.225586205856	247
5	2747	218.225586205856	248
5	2763	219.937664507341	249
5	2763	219.937664507341	250
5	2763	219.937664507341	251
5	2800	222.539737260233	252
5	2800	222.539737260233	253
5	2800	222.539737260233	254
5	2822	224.123539815798	255
5	2822	224.123539815798	256
5	2822	224.123539815798	257
5	2928	233.876520102685	258
5	2928	233.876520102685	259
5	2928	233.876520102685	260
5	2981	237.953178906508	261
5	2981	237.953178906508	262
5	2981	237.953178906508	263
5	3008	239.899488336647	264
5	3008	239.899488336647	265
5	3008	239.899488336647	266
6	38	1.342305640794	0
6	38	1.342305640794	1
6	123	9.074520872286	2
6	123	9.074520872286	3
6	166	11.997675484252	4
6	166	11.997675484252	5
6	195	13.829684538415	6
6	195	13.829684538415	7
6	217	15.239864163066	8
6	217	15.239864163066	9
6	238	17.136511592429	10
6	238	17.136511592429	11
6	367	30.067429080633	12
6	367	30.067429080633	13
6	395	33.185868300489	14
6	395	33.185868300489	15
6	425	34.848246498521	16
6	425	34.848246498521	17
6	449	35.853309430887	18
6	449	35.853309430887	19
6	470	37.104917986784	20
6	470	37.104917986784	21
6	495	38.510386686572	22
6	495	38.510386686572	23
6	513	39.648395918176	24
6	513	39.648395918176	25
6	564	43.144044653102	26
6	564	43.144044653102	27
6	651	48.241246455233	28
6	651	48.241246455233	29
6	699	52.883734110891	30
6	699	52.883734110891	31
6	726	54.825033953535	32
6	726	54.825033953535	33
6	748	56.612998173379	34
6	748	56.612998173379	35
6	768	58.955322907464	36
6	768	58.955322907464	37
6	813	61.564256009558	38
6	813	61.564256009558	39
6	840	62.604340303984	40
6	840	62.604340303984	41
6	863	63.769436554054	42
6	863	63.769436554054	43
6	891	65.028680099528	44
6	891	65.028680099528	45
6	909	66.990912951393	46
6	909	66.990912951393	47
6	936	68.208685900982	48
6	936	68.208685900982	49
6	953	70.121712415145	50
6	953	70.121712415145	51
6	982	71.547977074583	52
6	982	71.547977074583	53
6	1003	72.945378720926	54
6	1003	72.945378720926	55
6	1024	74.23256679494	56
6	1024	74.23256679494	57
6	1055	77.435281542464	58
6	1055	77.435281542464	59
6	1124	82.658151067523	60
6	1124	82.658151067523	61
6	1206	90.375505832464	62
6	1206	90.375505832464	63
6	1228	91.640770834586	64
6	1228	91.640770834586	65
6	1253	92.99875563186	66
6	1253	92.99875563186	67
6	1287	97.62827828558	68
6	1287	97.62827828558	69
6	1341	101.770566174937	70
6	1341	101.770566174937	71
6	1366	102.847812770987	72
6	1366	102.847812770987	73
6	1384	104.524749836882	74
6	1384	104.524749836882	75
6	1422	109.491035946971	76
6	1422	109.491035946971	77
6	1466	115.951388287749	78
6	1466	115.951388287749	79
6	1552	122.838342377556	80
6	1552	122.838342377556	81
6	1643	128.998768887288	82
6	1643	128.998768887288	83
6	1759	137.78127032317	84
6	1759	137.78127032317	85
6	1862	145.461132607452	86
6	1862	145.461132607452	87
6	1893	147.022569134522	88
6	1893	147.022569134522	89
6	1918	148.905803578357	90
6	1918	148.905803578357	91
6	1989	154.470110794309	92
6	1989	154.470110794309	93
6	2058	159.42747862142	94
6	2058	159.42747862142	95
6	2101	162.500571989255	96
6	2101	162.500571989255	97
6	2165	168.554490951366	98
6	2165	168.554490951366	99
6	2190	169.813000337071	100
6	2190	169.813000337071	101
6	2295	176.849570575146	102
6	2295	176.849570575146	103
6	2365	183.871468856801	104
6	2365	183.871468856801	105
6	2393	186.84257214006	106
6	2393	186.84257214006	107
6	2437	189.062769775309	108
6	2437	189.062769775309	109
6	2498	193.370211131612	110
6	2498	193.370211131612	111
6	2522	197.017170780032	112
6	2522	197.017170780032	113
6	2579	201.524339840092	114
6	2579	201.524339840092	115
6	2606	206.973238774177	116
6	2606	206.973238774177	117
6	2638	208.824423267411	118
6	2638	208.824423267411	119
6	2652	210.796265256311	120
6	2652	210.796265256311	121
6	2746	218.219886788646	122
6	2746	218.219886788646	123
6	2829	224.1505834094	124
6	2829	224.1505834094	125
6	2889	230.504711620599	126
6	2889	230.504711620599	127
6	2907	231.991945639758	128
6	2907	231.991945639758	129
6	2989	237.980221109782	130
6	2989	237.980221109782	131
6	3007	239.896469595987	132
6	3007	239.896469595987	133
7	169	12.007675484252	0
7	191	13.815836288192	1
7	222	15.249864163066	2
7	430	34.858246498521	3
7	451	35.863309430887	4
7	472	37.114917986784	5
7	497	38.520386686572	6
7	566	43.154044653102	7
7	744	56.608978206095	8
7	771	58.965322907464	9
7	818	61.574256009558	10
7	821	61.576122778399	11
7	846	62.617441885507	12
7	915	67.000912951393	13
7	956	70.131712415145	14
7	984	71.557977074583	15
7	1005	72.955378720926	16
7	1026	74.24256679494	17
7	1061	77.446522967162	18
7	1227	91.639755901378	19
7	1343	101.780566174937	20
7	1357	102.824644270419	21
7	1417	109.471450101002	22
7	1424	109.501035946971	23
7	1469	115.961388287749	24
7	1554	122.848342377556	25
7	1635	128.953921393415	26
7	1885	147.00431952299	27
7	2037	158.072315913673	28
7	2060	159.43747862142	29
7	2097	162.49369886523	30
7	2171	168.588221488841	31
7	2297	176.859570575146	32
7	2359	183.86470599891	33
7	2367	183.881468856801	34
7	2395	186.85257214006	35
7	2442	189.072769775309	36
7	2475	192.068141223248	37
7	2525	197.027170780032	38
7	2609	206.983238774177	39
7	2640	208.834423267411	40
7	2698	213.829377977878	41
7	2723	216.934643533011	42
7	2749	218.229886788646	43
7	2767	219.947664507341	44
7	2806	222.549737260233	45
7	2828	224.133539815798	46
7	2912	232.001945639758	47

