version 2
run General-0-20231008-09:10:40-18810
attr configname General
attr datetime 20231008-09:10:40
attr experiment General
attr inifile omnetpp.ini
attr iterationvars ""
attr iterationvarsf ""
attr measurement ""
attr network Network3
attr processid 18810
attr repetition 0
attr replication #0
attr resultdir results
attr runnumber 0
attr seedset 0
param Network3.node[*].transmissionTime "uniform(1s, 2s)"
param Network3.node[*].delayTime "uniform(0.01s, 0.2s)"
param Network3.node[*].processingTime exponential(0.01s)
param Network3.node[0].lossProbability 0
param Network3.node[1].lossProbability 0.25
param Network3.node[2].lossProbability 0.25
param Network3.node[3].lossProbability "0.25 / 2"
param Network3.node[4].lossProbability "0.25 / 2"
param Network3.node[6].lossProbability "0.25 * 2"
param Network3.node[7].lossProbability "0.25 * 2"
param Network3.node[5].lossProbability "0.25 * 3"

vector 0 Network3.node[0] txVector ETV
vector 1 Network3.node[1] txVector ETV
vector 2 Network3.node[2] txVector ETV
vector 3 Network3.node[4] txVector ETV
vector 4 Network3.node[3] txVector ETV
vector 5 Network3.node[7] txVector ETV
vector 6 Network3.node[5] rxVector ETV
vector 7 Network3.node[6] txVector ETV
0	1	0.114274565438	0
0	1	0.114274565438	1
0	19	1.707119181827	2
0	19	1.707119181827	3
0	41	3.184784293482	4
0	41	3.184784293482	5
0	63	4.6583923335	6
0	63	4.6583923335	7
0	85	6.395310511421	8
0	85	6.395310511421	9
0	95	7.494590862961	10
0	95	7.494590862961	11
0	117	9.245277001829	12
0	117	9.245277001829	13
0	123	10.719974506953	14
0	123	10.719974506953	15
0	141	12.394726829211	16
0	141	12.394726829211	17
0	159	14.272920297765	18
0	159	14.272920297765	19
0	180	15.961581484022	20
0	180	15.961581484022	21
0	201	17.280150438965	22
0	201	17.280150438965	23
0	223	18.849768843342	24
0	223	18.849768843342	25
0	248	20.82833976725	26
0	248	20.82833976725	27
0	266	22.252194811198	28
0	266	22.252194811198	29
0	284	23.550477139027	30
0	284	23.550477139027	31
0	309	24.986342058358	32
0	309	24.986342058358	33
0	331	26.765393076538	34
0	331	26.765393076538	35
0	345	27.996135418144	36
0	345	27.996135418144	37
0	348	29.175625686142	38
0	348	29.175625686142	39
0	369	30.969323388608	40
0	369	30.969323388608	41
0	391	32.236585922614	42
0	391	32.236585922614	43
0	397	34.206822607508	44
0	397	34.206822607508	45
0	419	35.263240942108	46
0	419	35.263240942108	47
0	441	36.977937874925	48
0	441	36.977937874925	49
0	466	37.977993225288	50
0	466	37.977993225288	51
0	491	39.003655938739	52
0	491	39.003655938739	53
0	512	40.466806135215	54
0	512	40.466806135215	55
0	530	42.018998606671	56
0	530	42.018998606671	57
0	555	43.804151516948	58
0	555	43.804151516948	59
0	577	45.290311075356	60
0	577	45.290311075356	61
0	599	46.294359180918	62
0	599	46.294359180918	63
0	620	48.08323195491	64
0	620	48.08323195491	65
0	645	49.853812703705	66
0	645	49.853812703705	67
0	667	51.330289907596	68
0	667	51.330289907596	69
0	681	52.536884513293	70
0	681	52.536884513293	71
0	687	53.670349723967	72
0	687	53.670349723967	73
0	709	55.385528472793	74
0	709	55.385528472793	75
0	734	56.529357840149	76
0	734	56.529357840149	77
0	759	57.928383167209	78
0	759	57.928383167209	79
0	781	59.882104548467	80
0	781	59.882104548467	81
0	806	61.818851025616	82
0	806	61.818851025616	83
0	812	63.76415255906	84
0	812	63.76415255906	85
0	815	65.090853445771	86
0	815	65.090853445771	87
0	834	66.328026736229	88
0	834	66.328026736229	89
0	859	67.340062959426	90
0	859	67.340062959426	91
0	884	68.410510148694	92
0	884	68.410510148694	93
0	909	70.335477064903	94
0	909	70.335477064903	95
0	915	72.226999747408	96
0	915	72.226999747408	97
0	937	74.14372676176	98
0	937	74.14372676176	99
0	962	75.495597325573	100
0	962	75.495597325573	101
0	984	76.788391356664	102
0	984	76.788391356664	103
0	1002	78.685152513283	104
0	1002	78.685152513283	105
0	1024	80.058187376783	106
0	1024	80.058187376783	107
0	1045	81.798284904175	108
0	1045	81.798284904175	109
0	1067	83.433341699262	110
0	1067	83.433341699262	111
0	1092	85.402205800946	112
0	1092	85.402205800946	113
0	1114	87.098688229528	114
0	1114	87.098688229528	115
0	1139	88.508989789133	116
0	1139	88.508989789133	117
0	1164	89.551966195536	118
0	1164	89.551966195536	119
0	1178	90.992229945335	120
0	1178	90.992229945335	121
0	1192	92.899962903076	122
0	1192	92.899962903076	123
0	1210	94.262151960592	124
0	1210	94.262151960592	125
0	1232	95.739798465586	126
0	1232	95.739798465586	127
0	1257	97.330825362663	128
0	1257	97.330825362663	129
0	1279	98.412883108325	130
0	1279	98.412883108325	131
0	1304	100.353664767306	132
0	1304	100.353664767306	133
0	1307	101.595221807325	134
0	1307	101.595221807325	135
0	1329	103.580155112624	136
0	1329	103.580155112624	137
0	1347	104.815417958267	138
0	1347	104.815417958267	139
0	1372	106.440776156804	140
0	1372	106.440776156804	141
0	1394	108.143993649941	142
0	1394	108.143993649941	143
0	1412	109.163116547588	144
0	1412	109.163116547588	145
0	1415	110.428156248137	146
0	1415	110.428156248137	147
0	1418	111.941915982945	148
0	1418	111.941915982945	149
0	1436	113.798192166101	150
0	1436	113.798192166101	151
0	1446	115.147632461583	152
0	1446	115.147632461583	153
0	1468	117.04332375534	154
0	1468	117.04332375534	155
0	1474	118.539294052246	156
0	1474	118.539294052246	157
0	1492	120.063673857908	158
0	1492	120.063673857908	159
0	1517	121.945570358617	160
0	1517	121.945570358617	161
0	1542	123.924117906095	162
0	1542	123.924117906095	163
0	1564	125.169007385458	164
0	1564	125.169007385458	165
0	1585	127.011862277595	166
0	1585	127.011862277595	167
0	1610	128.947164167959	168
0	1610	128.947164167959	169
0	1631	130.656199626468	170
0	1631	130.656199626468	171
0	1649	131.978216966225	172
0	1649	131.978216966225	173
0	1671	133.326573715855	174
0	1671	133.326573715855	175
0	1690	134.383894334624	176
0	1690	134.383894334624	177
0	1715	136.266178003589	178
0	1715	136.266178003589	179
0	1718	137.776306006901	180
0	1718	137.776306006901	181
0	1740	139.135301284568	182
0	1740	139.135301284568	183
0	1762	141.03426237831	184
0	1762	141.03426237831	185
0	1787	142.324175826815	186
0	1787	142.324175826815	187
0	1808	143.496371536358	188
0	1808	143.496371536358	189
0	1829	145.37239838562	190
0	1829	145.37239838562	191
0	1854	147.101846499909	192
0	1854	147.101846499909	193
0	1875	148.140403742045	194
0	1875	148.140403742045	195
0	1897	150.133405055227	196
0	1897	150.133405055227	197
0	1922	151.927911508903	198
0	1922	151.927911508903	199
0	1947	153.550805538502	200
0	1947	153.550805538502	201
0	1972	154.917851780383	202
0	1972	154.917851780383	203
0	1993	156.791683958452	204
0	1993	156.791683958452	205
0	2015	157.832394214887	206
0	2015	157.832394214887	207
0	2018	159.076770288246	208
0	2018	159.076770288246	209
0	2032	161.030445989296	210
0	2032	161.030445989296	211
0	2057	162.519904621951	212
0	2057	162.519904621951	213
0	2063	163.648601235896	214
0	2063	163.648601235896	215
0	2085	164.721355314208	216
0	2085	164.721355314208	217
0	2103	166.047473005326	218
0	2103	166.047473005326	219
0	2125	167.959129761979	220
0	2125	167.959129761979	221
0	2131	169.485542302793	222
0	2131	169.485542302793	223
0	2141	170.546320458949	224
0	2141	170.546320458949	225
0	2166	172.456393071525	226
0	2166	172.456393071525	227
0	2188	174.423730868688	228
0	2188	174.423730868688	229
0	2210	175.52398261738	230
0	2210	175.52398261738	231
0	2232	177.30737925794	232
0	2232	177.30737925794	233
0	2257	178.829441672266	234
0	2257	178.829441672266	235
0	2282	180.197932635975	236
0	2282	180.197932635975	237
0	2304	181.590251572738	238
0	2304	181.590251572738	239
0	2326	182.820822858094	240
0	2326	182.820822858094	241
0	2340	184.713530026917	242
0	2340	184.713530026917	243
0	2362	186.012683675001	244
0	2362	186.012683675001	245
0	2387	187.938078701571	246
0	2387	187.938078701571	247
0	2409	188.938139271532	248
0	2409	188.938139271532	249
0	2431	190.236752937623	250
0	2431	190.236752937623	251
0	2453	191.297645164496	252
0	2453	191.297645164496	253
0	2474	192.744191898341	254
0	2474	192.744191898341	255
0	2496	194.14588008619	256
0	2496	194.14588008619	257
0	2521	196.117643162218	258
0	2521	196.117643162218	259
0	2546	197.311701250105	260
0	2546	197.311701250105	261
0	2568	198.813806834007	262
0	2568	198.813806834007	263
0	2589	200.105984202195	264
0	2589	200.105984202195	265
0	2610	201.800712307524	266
0	2610	201.800712307524	267
0	2628	203.738576683058	268
0	2628	203.738576683058	269
0	2653	205.560480589821	270
0	2653	205.560480589821	271
0	2671	207.21299493786	272
0	2671	207.21299493786	273
0	2693	208.445311435573	274
0	2693	208.445311435573	275
0	2714	209.916518204687	276
0	2714	209.916518204687	277
0	2739	211.287805153364	278
0	2739	211.287805153364	279
0	2757	212.857511195428	280
0	2757	212.857511195428	281
0	2782	214.774663161793	282
0	2782	214.774663161793	283
0	2807	216.33079634102	284
0	2807	216.33079634102	285
0	2829	218.125102010862	286
0	2829	218.125102010862	287
0	2843	219.653422005781	288
0	2843	219.653422005781	289
0	2864	220.698351792133	290
0	2864	220.698351792133	291
0	2886	222.107125617171	292
0	2886	222.107125617171	293
0	2900	223.811527156111	294
0	2900	223.811527156111	295
0	2925	225.647173190097	296
0	2925	225.647173190097	297
0	2947	227.538474586167	298
0	2947	227.538474586167	299
0	2969	228.57623868117	300
0	2969	228.57623868117	301
0	2994	229.883545245816	302
0	2994	229.883545245816	303
0	3012	230.995795231852	304
0	3012	230.995795231852	305
0	3030	232.793874249402	306
0	3030	232.793874249402	307
0	3052	234.20696037759	308
0	3052	234.20696037759	309
0	3074	235.357310131499	310
0	3074	235.357310131499	311
0	3092	237.263804251868	312
0	3092	237.263804251868	313
0	3117	239.12636350289	314
0	3117	239.12636350289	315
1	4	0.142870607559	0
1	4	0.142870607559	1
1	4	0.142870607559	2
1	25	1.73384129383	3
1	25	1.73384129383	4
1	25	1.73384129383	5
1	45	3.210924314231	6
1	45	3.210924314231	7
1	45	3.210924314231	8
1	67	4.670832818407	9
1	67	4.670832818407	10
1	67	4.670832818407	11
1	99	7.513951478559	12
1	99	7.513951478559	13
1	99	7.513951478559	14
1	126	10.733790065387	15
1	126	10.733790065387	16
1	126	10.733790065387	17
1	145	12.411852665144	18
1	145	12.411852665144	19
1	145	12.411852665144	20
1	162	14.304162669735	21
1	162	14.304162669735	22
1	162	14.304162669735	23
1	190	16.026070640303	24
1	190	16.026070640303	25
1	190	16.026070640303	26
1	205	17.302315525499	27
1	205	17.302315525499	28
1	205	17.302315525499	29
1	226	18.861004109816	30
1	226	18.861004109816	31
1	226	18.861004109816	32
1	252	20.847663796054	33
1	252	20.847663796054	34
1	252	20.847663796054	35
1	288	23.582726285599	36
1	288	23.582726285599	37
1	288	23.582726285599	38
1	315	25.016361923313	39
1	315	25.016361923313	40
1	315	25.016361923313	41
1	351	29.188160743193	42
1	351	29.188160743193	43
1	351	29.188160743193	44
1	372	30.990689353561	45
1	372	30.990689353561	46
1	372	30.990689353561	47
1	400	34.223513744745	48
1	400	34.223513744745	49
1	400	34.223513744745	50
1	422	35.279580242302	51
1	422	35.279580242302	52
1	422	35.279580242302	53
1	444	36.991675507863	54
1	444	36.991675507863	55
1	444	36.991675507863	56
1	469	37.990318475472	57
1	469	37.990318475472	58
1	469	37.990318475472	59
1	494	39.032008572768	60
1	494	39.032008572768	61
1	494	39.032008572768	62
1	515	40.485588286002	63
1	515	40.485588286002	64
1	515	40.485588286002	65
1	533	42.032307705483	66
1	533	42.032307705483	67
1	533	42.032307705483	68
1	559	43.826480321578	69
1	559	43.826480321578	70
1	559	43.826480321578	71
1	580	45.303451054337	72
1	580	45.303451054337	73
1	580	45.303451054337	74
1	603	46.309658796711	75
1	603	46.309658796711	76
1	603	46.309658796711	77
1	624	48.094821286707	78
1	624	48.094821286707	79
1	624	48.094821286707	80
1	649	49.870505732425	81
1	649	49.870505732425	82
1	649	49.870505732425	83
1	671	51.359081091938	84
1	671	51.359081091938	85
1	671	51.359081091938	86
1	690	53.687099233704	87
1	690	53.687099233704	88
1	690	53.687099233704	89
1	713	55.406011363843	90
1	713	55.406011363843	91
1	713	55.406011363843	92
1	745	56.580912376619	93
1	745	56.580912376619	94
1	745	56.580912376619	95
1	763	57.946543352849	96
1	763	57.946543352849	97
1	763	57.946543352849	98
1	784	59.89803536444	99
1	784	59.89803536444	100
1	784	59.89803536444	101
1	818	65.11914886733	102
1	818	65.11914886733	103
1	818	65.11914886733	104
1	837	66.339253886302	105
1	837	66.339253886302	106
1	837	66.339253886302	107
1	874	67.417130734953	108
1	874	67.417130734953	109
1	874	67.417130734953	110
1	887	68.420981141405	111
1	887	68.420981141405	112
1	887	68.420981141405	113
1	918	72.238208061371	114
1	918	72.238208061371	115
1	918	72.238208061371	116
1	947	74.1909087842	117
1	947	74.1909087842	118
1	947	74.1909087842	119
1	965	75.507250255696	120
1	965	75.507250255696	121
1	965	75.507250255696	122
1	994	76.836311898292	123
1	994	76.836311898292	124
1	994	76.836311898292	125
1	1005	78.702596295897	126
1	1005	78.702596295897	127
1	1005	78.702596295897	128
1	1028	80.079597810126	129
1	1028	80.079597810126	130
1	1028	80.079597810126	131
1	1048	81.811846561991	132
1	1048	81.811846561991	133
1	1048	81.811846561991	134
1	1077	83.475738239726	135
1	1077	83.475738239726	136
1	1077	83.475738239726	137
1	1096	85.429008624947	138
1	1096	85.429008624947	139
1	1096	85.429008624947	140
1	1117	87.118451149758	141
1	1117	87.118451149758	142
1	1117	87.118451149758	143
1	1142	88.520223883848	144
1	1142	88.520223883848	145
1	1142	88.520223883848	146
1	1167	89.562761897087	147
1	1167	89.562761897087	148
1	1167	89.562761897087	149
1	1188	91.046627887472	150
1	1188	91.046627887472	151
1	1188	91.046627887472	152
1	1196	92.91632393762	153
1	1196	92.91632393762	154
1	1196	92.91632393762	155
1	1214	94.275492711423	156
1	1214	94.275492711423	157
1	1214	94.275492711423	158
1	1236	95.76056237018	159
1	1236	95.76056237018	160
1	1236	95.76056237018	161
1	1267	97.365968067581	162
1	1267	97.365968067581	163
1	1267	97.365968067581	164
1	1282	98.423422477889	165
1	1282	98.423422477889	166
1	1282	98.423422477889	167
1	1310	101.627911498191	168
1	1310	101.627911498191	169
1	1310	101.627911498191	170
1	1332	103.590761855626	171
1	1332	103.590761855626	172
1	1332	103.590761855626	173
1	1353	104.849951016682	174
1	1353	104.849951016682	175
1	1353	104.849951016682	176
1	1375	106.460848883688	177
1	1375	106.460848883688	178
1	1375	106.460848883688	179
1	1397	108.161294870144	180
1	1397	108.161294870144	181
1	1397	108.161294870144	182
1	1421	111.953684790006	183
1	1421	111.953684790006	184
1	1421	111.953684790006	185
1	1464	115.253354750623	186
1	1464	115.253354750623	187
1	1464	115.253354750623	188
1	1477	118.550542660824	189
1	1477	118.550542660824	190
1	1477	118.550542660824	191
1	1495	120.086389957931	192
1	1495	120.086389957931	193
1	1495	120.086389957931	194
1	1520	121.964132020191	195
1	1520	121.964132020191	196
1	1520	121.964132020191	197
1	1546	123.936557202794	198
1	1546	123.936557202794	199
1	1546	123.936557202794	200
1	1574	125.217313233399	201
1	1574	125.217313233399	202
1	1574	125.217313233399	203
1	1600	127.105947778816	204
1	1600	127.105947778816	205
1	1600	127.105947778816	206
1	1617	128.988028139348	207
1	1617	128.988028139348	208
1	1617	128.988028139348	209
1	1641	130.715646892935	210
1	1641	130.715646892935	211
1	1641	130.715646892935	212
1	1652	131.989140841413	213
1	1652	131.989140841413	214
1	1652	131.989140841413	215
1	1674	133.337408196031	216
1	1674	133.337408196031	217
1	1674	133.337408196031	218
1	1694	134.407110235686	219
1	1694	134.407110235686	220
1	1694	134.407110235686	221
1	1721	137.813970808582	222
1	1721	137.813970808582	223
1	1721	137.813970808582	224
1	1743	139.147353312751	225
1	1743	139.147353312751	226
1	1743	139.147353312751	227
1	1765	141.052882994583	228
1	1765	141.052882994583	229
1	1765	141.052882994583	230
1	1790	142.335064970438	231
1	1790	142.335064970438	232
1	1790	142.335064970438	233
1	1818	143.545889758912	234
1	1818	143.545889758912	235
1	1818	143.545889758912	236
1	1833	145.391030871063	237
1	1833	145.391030871063	238
1	1833	145.391030871063	239
1	1860	147.126679401892	240
1	1860	147.126679401892	241
1	1860	147.126679401892	242
1	1878	148.152201382927	243
1	1878	148.152201382927	244
1	1878	148.152201382927	245
1	1900	150.155648885587	246
1	1900	150.155648885587	247
1	1900	150.155648885587	248
1	1925	151.939093670853	249
1	1925	151.939093670853	250
1	1925	151.939093670853	251
1	1950	153.576401051319	252
1	1950	153.576401051319	253
1	1950	153.576401051319	254
1	1979	154.945808349771	255
1	1979	154.945808349771	256
1	1979	154.945808349771	257
1	1996	156.808217593124	258
1	1996	156.808217593124	259
1	1996	156.808217593124	260
1	2028	159.124022901321	261
1	2028	159.124022901321	262
1	2028	159.124022901321	263
1	2035	161.043238868316	264
1	2035	161.043238868316	265
1	2035	161.043238868316	266
1	2067	163.668942948284	267
1	2067	163.668942948284	268
1	2067	163.668942948284	269
1	2088	164.734924770571	270
1	2088	164.734924770571	271
1	2088	164.734924770571	272
1	2106	166.062813238733	273
1	2106	166.062813238733	274
1	2106	166.062813238733	275
1	2144	170.556604268437	276
1	2144	170.556604268437	277
1	2144	170.556604268437	278
1	2172	172.486134738428	279
1	2172	172.486134738428	280
1	2172	172.486134738428	281
1	2194	174.447959811303	282
1	2194	174.447959811303	283
1	2194	174.447959811303	284
1	2214	175.541301287775	285
1	2214	175.541301287775	286
1	2214	175.541301287775	287
1	2235	177.317737188524	288
1	2235	177.317737188524	289
1	2235	177.317737188524	290
1	2260	178.853772878085	291
1	2260	178.853772878085	292
1	2260	178.853772878085	293
1	2285	180.210432878831	294
1	2285	180.210432878831	295
1	2285	180.210432878831	296
1	2307	181.603381011275	297
1	2307	181.603381011275	298
1	2307	181.603381011275	299
1	2329	182.831916303229	300
1	2329	182.831916303229	301
1	2329	182.831916303229	302
1	2343	184.728446862369	303
1	2343	184.728446862369	304
1	2343	184.728446862369	305
1	2366	186.033609944961	306
1	2366	186.033609944961	307
1	2366	186.033609944961	308
1	2390	187.95849752056	309
1	2390	187.95849752056	310
1	2390	187.95849752056	311
1	2412	188.954317987719	312
1	2412	188.954317987719	313
1	2412	188.954317987719	314
1	2441	190.299085513264	315
1	2441	190.299085513264	316
1	2441	190.299085513264	317
1	2456	191.308640022917	318
1	2456	191.308640022917	319
1	2456	191.308640022917	320
1	2478	192.755088898442	321
1	2478	192.755088898442	322
1	2478	192.755088898442	323
1	2506	194.189611137008	324
1	2506	194.189611137008	325
1	2506	194.189611137008	326
1	2528	196.17710103916	327
1	2528	196.17710103916	328
1	2528	196.17710103916	329
1	2549	197.337127855136	330
1	2549	197.337127855136	331
1	2549	197.337127855136	332
1	2578	198.85063881284	333
1	2578	198.85063881284	334
1	2578	198.85063881284	335
1	2592	200.116163486539	336
1	2592	200.116163486539	337
1	2592	200.116163486539	338
1	2614	201.820418201522	339
1	2614	201.820418201522	340
1	2614	201.820418201522	341
1	2639	203.819133990208	342
1	2639	203.819133990208	343
1	2639	203.819133990208	344
1	2663	205.610372392909	345
1	2663	205.610372392909	346
1	2663	205.610372392909	347
1	2675	207.230458658981	348
1	2675	207.230458658981	349
1	2675	207.230458658981	350
1	2699	208.466046708557	351
1	2699	208.466046708557	352
1	2699	208.466046708557	353
1	2732	210.004865379913	354
1	2732	210.004865379913	355
1	2732	210.004865379913	356
1	2743	211.310782532795	357
1	2743	211.310782532795	358
1	2743	211.310782532795	359
1	2761	212.869373707947	360
1	2761	212.869373707947	361
1	2761	212.869373707947	362
1	2785	214.78849083789	363
1	2785	214.78849083789	364
1	2785	214.78849083789	365
1	2814	216.366605066408	366
1	2814	216.366605066408	367
1	2814	216.366605066408	368
1	2853	219.734170697909	369
1	2853	219.734170697909	370
1	2853	219.734170697909	371
1	2867	220.711863376419	372
1	2867	220.711863376419	373
1	2867	220.711863376419	374
1	2903	223.828133162211	375
1	2903	223.828133162211	376
1	2903	223.828133162211	377
1	2931	225.672732887839	378
1	2931	225.672732887839	379
1	2931	225.672732887839	380
1	2951	227.553462775057	381
1	2951	227.553462775057	382
1	2951	227.553462775057	383
1	2973	228.596341063764	384
1	2973	228.596341063764	385
1	2973	228.596341063764	386
1	2997	229.893978121628	387
1	2997	229.893978121628	388
1	2997	229.893978121628	389
1	3015	231.013802421345	390
1	3015	231.013802421345	391
1	3015	231.013802421345	392
1	3033	232.816255003752	393
1	3033	232.816255003752	394
1	3033	232.816255003752	395
1	3056	234.225131245797	396
1	3056	234.225131245797	397
1	3056	234.225131245797	398
1	3080	235.383397784641	399
1	3080	235.383397784641	400
1	3080	235.383397784641	401
1	3095	237.282629845896	402
1	3095	237.282629845896	403
1	3095	237.282629845896	404
1	3120	239.138649760266	405
1	3120	239.138649760266	406
1	3120	239.138649760266	407
2	5	0.143790018797	0
2	5	0.143790018797	1
2	22	1.723658007499	2
2	22	1.723658007499	3
2	44	3.202133937694	4
2	44	3.202133937694	5
2	66	4.669845113773	6
2	66	4.669845113773	7
2	88	6.416299636097	8
2	88	6.416299636097	9
2	98	7.508521988534	10
2	98	7.508521988534	11
2	120	9.25700827639	12
2	120	9.25700827639	13
2	138	10.794860107964	14
2	138	10.794860107964	15
2	144	12.405300098475	16
2	144	12.405300098475	17
2	163	14.307959415596	18
2	163	14.307959415596	19
2	183	15.990054760532	20
2	183	15.990054760532	21
2	204	17.293553906347	22
2	204	17.293553906347	23
2	230	18.874337028928	24
2	230	18.874337028928	25
2	251	20.838533565063	26
2	251	20.838533565063	27
2	269	22.266565091336	28
2	269	22.266565091336	29
2	287	23.576886114806	30
2	287	23.576886114806	31
2	312	25.001642087139	32
2	312	25.001642087139	33
2	334	26.779855604743	34
2	334	26.779855604743	35
2	352	29.189862257156	36
2	352	29.189862257156	37
2	373	30.999295108283	38
2	373	30.999295108283	39
2	394	32.249520999133	40
2	394	32.249520999133	41
2	405	34.238109308453	42
2	405	34.238109308453	43
2	435	35.328105807885	44
2	435	35.328105807885	45
2	445	36.993479583215	46
2	445	36.993479583215	47
2	481	38.017068820168	48
2	481	38.017068820168	49
2	506	39.067620946721	50
2	506	39.067620946721	51
2	527	40.535569066994	52
2	527	40.535569066994	53
2	534	42.037827412121	54
2	534	42.037827412121	55
2	558	43.821045862326	56
2	558	43.821045862326	57
2	581	45.305595747639	58
2	581	45.305595747639	59
2	602	46.308810674312	60
2	602	46.308810674312	61
2	623	48.094060577639	62
2	623	48.094060577639	63
2	648	49.869947094601	64
2	648	49.869947094601	65
2	670	51.351726813802	66
2	670	51.351726813802	67
2	684	52.553043706131	68
2	684	52.553043706131	69
2	706	53.73665921432	70
2	706	53.73665921432	71
2	712	55.403276896588	72
2	712	55.403276896588	73
2	737	56.544914429281	74
2	737	56.544914429281	75
2	762	57.939408686139	76
2	762	57.939408686139	77
2	785	59.905112922742	78
2	785	59.905112922742	79
2	809	61.829816438406	80
2	809	61.829816438406	81
2	838	66.347662663192	82
2	838	66.347662663192	83
2	862	67.360924992538	84
2	862	67.360924992538	85
2	888	68.423157971427	86
2	888	68.423157971427	87
2	912	70.357181422203	88
2	912	70.357181422203	89
2	919	72.24697273665	90
2	919	72.24697273665	91
2	940	74.160706137248	92
2	940	74.160706137248	93
2	966	75.511001352549	94
2	966	75.511001352549	95
2	987	76.807064276852	96
2	987	76.807064276852	97
2	1013	78.728499718065	98
2	1013	78.728499718065	99
2	1027	80.077926162698	100
2	1027	80.077926162698	101
2	1057	81.833032447944	102
2	1057	81.833032447944	103
2	1070	83.444571324931	104
2	1070	83.444571324931	105
2	1095	85.419335365737	106
2	1095	85.419335365737	107
2	1121	87.130488434	108
2	1121	87.130488434	109
2	1156	88.553140451415	110
2	1156	88.553140451415	111
2	1171	89.573888717957	112
2	1171	89.573888717957	113
2	1181	91.007935005216	114
2	1181	91.007935005216	115
2	1195	92.914714997464	116
2	1195	92.914714997464	117
2	1213	94.274875472856	118
2	1213	94.274875472856	119
2	1235	95.754861105257	120
2	1235	95.754861105257	121
2	1260	97.341472198714	122
2	1260	97.341472198714	123
2	1283	98.431951739398	124
2	1283	98.431951739398	125
2	1318	101.66142135588	126
2	1318	101.66142135588	127
2	1333	103.591477228622	128
2	1333	103.591477228622	129
2	1350	104.836559105632	130
2	1350	104.836559105632	131
2	1401	108.17249454214	132
2	1401	108.17249454214	133
2	1433	111.994206611943	134
2	1433	111.994206611943	135
2	1439	113.813671290478	136
2	1439	113.813671290478	137
2	1449	115.178119841519	138
2	1449	115.178119841519	139
2	1471	117.060540342817	140
2	1471	117.060540342817	141
2	1478	118.551035744457	142
2	1478	118.551035744457	143
2	1499	120.107603165054	144
2	1499	120.107603165054	145
2	1521	121.965889565646	146
2	1521	121.965889565646	147
2	1545	123.935933698272	148
2	1545	123.935933698272	149
2	1567	125.191985751149	150
2	1567	125.191985751149	151
2	1588	127.059111021336	152
2	1588	127.059111021336	153
2	1613	128.961501829854	154
2	1613	128.961501829854	155
2	1634	130.671358443693	156
2	1634	130.671358443693	157
2	1668	132.034687043438	158
2	1668	132.034687043438	159
2	1693	134.399166022521	160
2	1693	134.399166022521	161
2	1733	137.843776031395	162
2	1733	137.843776031395	163
2	1744	139.152908450586	164
2	1744	139.152908450586	165
2	1766	141.059366426497	166
2	1766	141.059366426497	167
2	1791	142.340203935895	168
2	1791	142.340203935895	169
2	1811	143.519889757219	170
2	1811	143.519889757219	171
2	1832	145.386056734011	172
2	1832	145.386056734011	173
2	1857	147.114291068835	174
2	1857	147.114291068835	175
2	1879	148.157596709768	176
2	1879	148.157596709768	177
2	1915	150.219759606809	178
2	1915	150.219759606809	179
2	1926	151.944054311689	180
2	1926	151.944054311689	181
2	1959	153.606128793491	182
2	1959	153.606128793491	183
2	1975	154.930257670661	184
2	1975	154.930257670661	185
2	2008	156.85750041831	186
2	2008	156.85750041831	187
2	2021	159.094531520022	188
2	2021	159.094531520022	189
2	2036	161.049328830318	190
2	2036	161.049328830318	191
2	2060	162.536280939144	192
2	2060	162.536280939144	193
2	2066	163.661494229178	194
2	2066	163.661494229178	195
2	2100	164.763600085318	196
2	2100	164.763600085318	197
2	2107	166.068775413715	198
2	2107	166.068775413715	199
2	2128	167.976288226452	200
2	2128	167.976288226452	201
2	2134	169.529215085915	202
2	2134	169.529215085915	203
2	2145	170.558371628704	204
2	2145	170.558371628704	205
2	2169	172.476007442584	206
2	2169	172.476007442584	207
2	2191	174.433902945619	208
2	2191	174.433902945619	209
2	2213	175.534666200929	210
2	2213	175.534666200929	211
2	2240	177.341048512672	212
2	2240	177.341048512672	213
2	2273	178.881792758398	214
2	2273	178.881792758398	215
2	2286	180.219444113616	216
2	2286	180.219444113616	217
2	2311	181.616358739926	218
2	2311	181.616358739926	219
2	2352	184.784212052344	220
2	2352	184.784212052344	221
2	2365	186.028183748642	222
2	2365	186.028183748642	223
2	2391	187.959253263588	224
2	2391	187.959253263588	225
2	2413	188.959684723985	226
2	2413	188.959684723985	227
2	2434	190.248359073703	228
2	2434	190.248359073703	229
2	2464	191.330261895305	230
2	2464	191.330261895305	231
2	2477	192.754839298288	232
2	2477	192.754839298288	233
2	2499	194.156471968168	234
2	2499	194.156471968168	235
2	2524	196.134575062134	236
2	2524	196.134575062134	237
2	2571	198.826101109222	238
2	2571	198.826101109222	239
2	2600	200.147719813522	240
2	2600	200.147719813522	241
2	2613	201.811741610667	242
2	2613	201.811741610667	243
2	2631	203.750244108603	244
2	2631	203.750244108603	245
2	2656	205.570936539247	246
2	2656	205.570936539247	247
2	2674	207.229897123558	248
2	2674	207.229897123558	249
2	2696	208.455318607752	250
2	2696	208.455318607752	251
2	2717	209.927768074338	252
2	2717	209.927768074338	253
2	2742	211.303914368761	254
2	2742	211.303914368761	255
2	2760	212.86791131765	256
2	2760	212.86791131765	257
2	2791	214.816380025696	258
2	2791	214.816380025696	259
2	2810	216.347853605007	260
2	2810	216.347853605007	261
2	2832	218.137457468161	262
2	2832	218.137457468161	263
2	2846	219.667227893745	264
2	2846	219.667227893745	265
2	2868	220.715152264949	266
2	2868	220.715152264949	267
2	2889	222.120819154249	268
2	2889	222.120819154249	269
2	2908	223.842829306267	270
2	2908	223.842829306267	271
2	2928	225.660781141223	272
2	2928	225.660781141223	273
2	2950	227.550148480351	274
2	2950	227.550148480351	275
2	2972	228.592828608101	276
2	2972	228.592828608101	277
2	3019	231.04515145601	278
2	3019	231.04515145601	279
2	3034	232.819474514932	280
2	3034	232.819474514932	281
2	3055	234.222553160002	282
2	3055	234.222553160002	283
2	3077	235.371034261243	284
2	3077	235.371034261243	285
2	3107	237.322887462353	286
2	3107	237.322887462353	287
2	3121	239.141138402141	288
2	3121	239.141138402141	289
3	11	0.158381092426	0
3	11	0.158381092426	1
3	11	0.158381092426	2
3	33	1.759640548357	3
3	33	1.759640548357	4
3	33	1.759640548357	5
3	48	3.213392681788	6
3	48	3.213392681788	7
3	48	3.213392681788	8
3	73	4.689458923164	9
3	73	4.689458923164	10
3	73	4.689458923164	11
3	91	6.428173896757	12
3	91	6.428173896757	13
3	91	6.428173896757	14
3	113	7.568496447021	15
3	113	7.568496447021	16
3	113	7.568496447021	17
3	134	10.773661964306	18
3	134	10.773661964306	19
3	134	10.773661964306	20
3	152	12.428742551197	21
3	152	12.428742551197	22
3	152	12.428742551197	23
3	170	14.325954565006	24
3	170	14.325954565006	25
3	170	14.325954565006	26
3	186	16.012654098633	27
3	186	16.012654098633	28
3	186	16.012654098633	29
3	208	17.306414116072	30
3	208	17.306414116072	31
3	208	17.306414116072	32
3	231	18.876054297294	33
3	231	18.876054297294	34
3	231	18.876054297294	35
3	258	20.861124000236	36
3	258	20.861124000236	37
3	258	20.861124000236	38
3	272	22.285105888692	39
3	272	22.285105888692	40
3	272	22.285105888692	41
3	294	23.592826849789	42
3	294	23.592826849789	43
3	294	23.592826849789	44
3	316	25.01687078744	45
3	316	25.01687078744	46
3	316	25.01687078744	47
3	337	26.803718518263	48
3	337	26.803718518263	49
3	337	26.803718518263	50
3	359	29.20753213037	51
3	359	29.20753213037	52
3	359	29.20753213037	53
3	380	31.013787207275	54
3	380	31.013787207275	55
3	380	31.013787207275	56
3	406	34.238257907648	57
3	406	34.238257907648	58
3	406	34.238257907648	59
3	430	35.31326942401	60
3	430	35.31326942401	61
3	430	35.31326942401	62
3	451	37.00372898555	63
3	451	37.00372898555	64
3	451	37.00372898555	65
3	473	38.005005240232	66
3	473	38.005005240232	67
3	473	38.005005240232	68
3	499	39.043811315764	69
3	499	39.043811315764	70
3	499	39.043811315764	71
3	520	40.499043481839	72
3	520	40.499043481839	73
3	520	40.499043481839	74
3	545	42.063317528913	75
3	545	42.063317528913	76
3	545	42.063317528913	77
3	570	43.849946879307	78
3	570	43.849946879307	79
3	570	43.849946879307	80
3	592	45.330717388134	81
3	592	45.330717388134	82
3	592	45.330717388134	83
3	606	46.31965646923	84
3	606	46.31965646923	85
3	606	46.31965646923	86
3	634	48.121450944514	87
3	634	48.121450944514	88
3	634	48.121450944514	89
3	656	49.891444508478	90
3	656	49.891444508478	91
3	656	49.891444508478	92
3	674	51.366407878334	93
3	674	51.366407878334	94
3	674	51.366407878334	95
3	699	53.718530230708	96
3	699	53.718530230708	97
3	699	53.718530230708	98
3	720	55.418263819917	99
3	720	55.418263819917	100
3	720	55.418263819917	101
3	740	56.566941567119	102
3	740	56.566941567119	103
3	740	56.566941567119	104
3	769	57.957983037165	105
3	769	57.957983037165	106
3	769	57.957983037165	107
3	789	59.908374082992	108
3	789	59.908374082992	109
3	789	59.908374082992	110
3	830	65.166330303913	111
3	830	65.166330303913	112
3	830	65.166330303913	113
3	843	66.353943099575	114
3	843	66.353943099575	115
3	843	66.353943099575	116
3	865	67.380974325629	117
3	865	67.380974325629	118
3	865	67.380974325629	119
3	902	68.458672586233	120
3	902	68.458672586233	121
3	902	68.458672586233	122
3	924	72.252973219581	123
3	924	72.252973219581	124
3	924	72.252973219581	125
3	943	74.172956562187	126
3	943	74.172956562187	127
3	943	74.172956562187	128
3	973	75.522003652392	129
3	973	75.522003652392	130
3	973	75.522003652392	131
3	990	76.820234050651	132
3	990	76.820234050651	133
3	990	76.820234050651	134
3	1009	78.716653559336	135
3	1009	78.716653559336	136
3	1009	78.716653559336	137
3	1038	80.110262561209	138
3	1038	80.110262561209	139
3	1038	80.110262561209	140
3	1052	81.822094894068	141
3	1052	81.822094894068	142
3	1052	81.822094894068	143
3	1073	83.457993071847	144
3	1073	83.457993071847	145
3	1073	83.457993071847	146
3	1099	85.429630683849	147
3	1099	85.429630683849	148
3	1099	85.429630683849	149
3	1122	87.132430633704	150
3	1122	87.132430633704	151
3	1122	87.132430633704	152
3	1147	88.534028993334	153
3	1147	88.534028993334	154
3	1147	88.534028993334	155
3	1174	89.593839700671	156
3	1174	89.593839700671	157
3	1174	89.593839700671	158
3	1184	91.029100190952	159
3	1184	91.029100190952	160
3	1184	91.029100190952	161
3	1206	92.959854785694	162
3	1206	92.959854785694	163
3	1206	92.959854785694	164
3	1220	94.290542492454	165
3	1220	94.290542492454	166
3	1220	94.290542492454	167
3	1243	95.806615541299	168
3	1243	95.806615541299	169
3	1243	95.806615541299	170
3	1263	97.352948517546	171
3	1263	97.352948517546	172
3	1263	97.352948517546	173
3	1288	98.438527429516	174
3	1288	98.438527429516	175
3	1288	98.438527429516	176
3	1314	101.644320652423	177
3	1314	101.644320652423	178
3	1314	101.644320652423	179
3	1340	103.613271342233	180
3	1340	103.613271342233	181
3	1340	103.613271342233	182
3	1354	104.85425772499	183
3	1354	104.85425772499	184
3	1354	104.85425772499	185
3	1379	106.471939202324	186
3	1379	106.471939202324	187
3	1379	106.471939202324	188
3	1403	108.181330114023	189
3	1403	108.181330114023	190
3	1403	108.181330114023	191
3	1426	111.978532930746	192
3	1426	111.978532930746	193
3	1426	111.978532930746	194
3	1442	113.849873306247	195
3	1442	113.849873306247	196
3	1442	113.849873306247	197
3	1452	115.199857018798	198
3	1452	115.199857018798	199
3	1452	115.199857018798	200
3	1500	120.112619858102	201
3	1500	120.112619858102	202
3	1500	120.112619858102	203
3	1528	121.980012458308	204
3	1528	121.980012458308	205
3	1528	121.980012458308	206
3	1556	123.958714561211	207
3	1556	123.958714561211	208
3	1556	123.958714561211	209
3	1570	125.203686322037	210
3	1570	125.203686322037	211
3	1570	125.203686322037	212
3	1591	127.069137827919	213
3	1591	127.069137827919	214
3	1591	127.069137827919	215
3	1616	128.982117363017	216
3	1616	128.982117363017	217
3	1616	128.982117363017	218
3	1637	130.694313010332	219
3	1637	130.694313010332	220
3	1637	130.694313010332	221
3	1660	132.011671622353	222
3	1660	132.011671622353	223
3	1660	132.011671622353	224
3	1682	133.361477501484	225
3	1682	133.361477501484	226
3	1682	133.361477501484	227
3	1700	134.421304628152	228
3	1700	134.421304628152	229
3	1700	134.421304628152	230
3	1725	137.827295327798	231
3	1725	137.827295327798	232
3	1725	137.827295327798	233
3	1754	139.17393924662	234
3	1754	139.17393924662	235
3	1754	139.17393924662	236
3	1773	141.074420632217	237
3	1773	141.074420632217	238
3	1773	141.074420632217	239
3	1798	142.35494645697	240
3	1798	142.35494645697	241
3	1798	142.35494645697	242
3	1814	143.533961529024	243
3	1814	143.533961529024	244
3	1814	143.533961529024	245
3	1839	145.410218668816	246
3	1839	145.410218668816	247
3	1839	145.410218668816	248
3	1861	147.134631127062	249
3	1861	147.134631127062	250
3	1861	147.134631127062	251
3	1884	148.16478083522	252
3	1884	148.16478083522	253
3	1884	148.16478083522	254
3	1909	150.202374481439	255
3	1909	150.202374481439	256
3	1909	150.202374481439	257
3	1930	151.950541832198	258
3	1930	151.950541832198	259
3	1930	151.950541832198	260
3	1954	153.587186793589	261
3	1954	153.587186793589	262
3	1954	153.587186793589	263
3	1978	154.945619662562	264
3	1978	154.945619662562	265
3	1978	154.945619662562	266
3	2000	156.841041098774	267
3	2000	156.841041098774	268
3	2000	156.841041098774	269
3	2024	159.107921898299	270
3	2024	159.107921898299	271
3	2024	159.107921898299	272
3	2042	161.059974476221	273
3	2042	161.059974476221	274
3	2042	161.059974476221	275
3	2070	163.675801948309	276
3	2070	163.675801948309	277
3	2070	163.675801948309	278
3	2092	164.747150326941	279
3	2092	164.747150326941	280
3	2092	164.747150326941	281
3	2111	166.07546296009	282
3	2111	166.07546296009	283
3	2111	166.07546296009	284
3	2137	169.549456833705	285
3	2137	169.549456833705	286
3	2137	169.549456833705	287
3	2155	170.578364865709	288
3	2155	170.578364865709	289
3	2155	170.578364865709	290
3	2180	172.522016075092	291
3	2180	172.522016075092	292
3	2180	172.522016075092	293
3	2202	174.475036972424	294
3	2202	174.475036972424	295
3	2202	174.475036972424	296
3	2217	175.550798706144	297
3	2217	175.550798706144	298
3	2217	175.550798706144	299
3	2239	177.331406937303	300
3	2239	177.331406937303	301
3	2239	177.331406937303	302
3	2265	178.869090537403	303
3	2265	178.869090537403	304
3	2265	178.869090537403	305
3	2293	180.232194936754	306
3	2293	180.232194936754	307
3	2293	180.232194936754	308
3	2314	181.628923927469	309
3	2314	181.628923927469	310
3	2314	181.628923927469	311
3	2347	184.74731785846	312
3	2347	184.74731785846	313
3	2347	184.74731785846	314
3	2376	186.057113896977	315
3	2376	186.057113896977	316
3	2376	186.057113896977	317
3	2398	187.971876286329	318
3	2398	187.971876286329	319
3	2398	187.971876286329	320
3	2417	188.965356164416	321
3	2417	188.965356164416	322
3	2417	188.965356164416	323
3	2437	190.258935168211	324
3	2437	190.258935168211	325
3	2437	190.258935168211	326
3	2460	191.319022591969	327
3	2460	191.319022591969	328
3	2460	191.319022591969	329
3	2484	192.771049102902	330
3	2484	192.771049102902	331
3	2484	192.771049102902	332
3	2502	194.174575389513	333
3	2502	194.174575389513	334
3	2502	194.174575389513	335
3	2527	196.175596367876	336
3	2527	196.175596367876	337
3	2527	196.175596367876	338
3	2557	197.362905666778	339
3	2557	197.362905666778	340
3	2557	197.362905666778	341
3	2574	198.840114788852	342
3	2574	198.840114788852	343
3	2574	198.840114788852	344
3	2606	200.181557880027	345
3	2606	200.181557880027	346
3	2606	200.181557880027	347
3	2620	201.83337597659	348
3	2620	201.83337597659	349
3	2620	201.83337597659	350
3	2634	203.794228652266	351
3	2634	203.794228652266	352
3	2634	203.794228652266	353
3	2659	205.584852935258	354
3	2659	205.584852935258	355
3	2659	205.584852935258	356
3	2681	207.243062138813	357
3	2681	207.243062138813	358
3	2681	207.243062138813	359
3	2703	208.479660596383	360
3	2703	208.479660596383	361
3	2703	208.479660596383	362
3	2720	209.950077484812	363
3	2720	209.950077484812	364
3	2720	209.950077484812	365
3	2746	211.314288183553	366
3	2746	211.314288183553	367
3	2746	211.314288183553	368
3	2771	212.898572182937	369
3	2771	212.898572182937	370
3	2771	212.898572182937	371
3	2789	214.808769590888	372
3	2789	214.808769590888	373
3	2789	214.808769590888	374
3	2813	216.358108734994	375
3	2813	216.358108734994	376
3	2813	216.358108734994	377
3	2835	218.14829438075	378
3	2835	218.14829438075	379
3	2835	218.14829438075	380
3	2849	219.709887898102	381
3	2849	219.709887898102	382
3	2849	219.709887898102	383
3	2874	220.729047787869	384
3	2874	220.729047787869	385
3	2874	220.729047787869	386
3	2892	222.154667790681	387
3	2892	222.154667790681	388
3	2892	222.154667790681	389
3	2909	223.845313916621	390
3	2909	223.845313916621	391
3	2909	223.845313916621	392
3	2932	225.67463532342	393
3	2932	225.67463532342	394
3	2932	225.67463532342	395
3	2954	227.561661821227	396
3	2954	227.561661821227	397
3	2954	227.561661821227	398
3	2979	228.607519272596	399
3	2979	228.607519272596	400
3	2979	228.607519272596	401
3	3001	229.90989835765	402
3	3001	229.90989835765	403
3	3001	229.90989835765	404
3	3022	231.056226947109	405
3	3022	231.056226947109	406
3	3022	231.056226947109	407
3	3041	232.845896476615	408
3	3041	232.845896476615	409
3	3041	232.845896476615	410
3	3062	234.237739105966	411
3	3062	234.237739105966	412
3	3062	234.237739105966	413
3	3081	235.38826259376	414
3	3081	235.38826259376	415
3	3081	235.38826259376	416
3	3100	237.311523548863	417
3	3100	237.311523548863	418
3	3100	237.311523548863	419
3	3125	239.149083580585	420
3	3125	239.149083580585	421
3	3125	239.149083580585	422
4	12	0.163252200566	0
4	12	0.163252200566	1
4	12	0.163252200566	2
4	29	1.744752904091	3
4	29	1.744752904091	4
4	29	1.744752904091	5
4	52	3.222471611036	6
4	52	3.222471611036	7
4	52	3.222471611036	8
4	74	4.690428298181	9
4	74	4.690428298181	10
4	74	4.690428298181	11
4	105	7.525027829641	12
4	105	7.525027829641	13
4	105	7.525027829641	14
4	130	10.754652759196	15
4	130	10.754652759196	16
4	130	10.754652759196	17
4	151	12.425176767554	18
4	151	12.425176767554	19
4	151	12.425176767554	20
4	169	14.322523645055	21
4	169	14.322523645055	22
4	169	14.322523645055	23
4	194	16.036273764891	24
4	194	16.036273764891	25
4	194	16.036273764891	26
4	216	17.321281434207	27
4	216	17.321281434207	28
4	216	17.321281434207	29
4	237	18.892299103777	30
4	237	18.892299103777	31
4	237	18.892299103777	32
4	259	20.86250015292	33
4	259	20.86250015292	34
4	259	20.86250015292	35
4	280	22.32131048979	36
4	280	22.32131048979	37
4	280	22.32131048979	38
4	295	23.597069742158	39
4	295	23.597069742158	40
4	295	23.597069742158	41
4	323	25.038316308976	42
4	323	25.038316308976	43
4	323	25.038316308976	44
4	358	29.207240383466	45
4	358	29.207240383466	46
4	358	29.207240383466	47
4	377	31.00442821852	48
4	377	31.00442821852	49
4	377	31.00442821852	50
4	404	34.235493422098	51
4	404	34.235493422098	52
4	404	34.235493422098	53
4	426	35.291056202631	54
4	426	35.291056202631	55
4	426	35.291056202631	56
4	455	37.032207354559	57
4	455	37.032207354559	58
4	455	37.032207354559	59
4	474	38.00654676857	60
4	474	38.00654676857	61
4	474	38.00654676857	62
4	498	39.043341979001	63
4	498	39.043341979001	64
4	498	39.043341979001	65
4	519	40.498343565372	66
4	519	40.498343565372	67
4	519	40.498343565372	68
4	540	42.048955782979	69
4	540	42.048955782979	70
4	540	42.048955782979	71
4	565	43.836613574026	72
4	565	43.836613574026	73
4	565	43.836613574026	74
4	585	45.315556387219	75
4	585	45.315556387219	76
4	585	45.315556387219	77
4	610	46.322301501352	78
4	610	46.322301501352	79
4	610	46.322301501352	80
4	630	48.110480232123	81
4	630	48.110480232123	82
4	630	48.110480232123	83
4	655	49.883839765809	84
4	655	49.883839765809	85
4	655	49.883839765809	86
4	694	53.70380155247	87
4	694	53.70380155247	88
4	694	53.70380155247	89
4	719	55.418083215666	90
4	719	55.418083215666	91
4	719	55.418083215666	92
4	752	56.600361209104	93
4	752	56.600361209104	94
4	752	56.600361209104	95
4	773	57.980495150743	96
4	773	57.980495150743	97
4	773	57.980495150743	98
4	795	59.939972983167	99
4	795	59.939972983167	100
4	795	59.939972983167	101
4	822	65.134748951063	102
4	822	65.134748951063	103
4	822	65.134748951063	104
4	842	66.349721235319	105
4	842	66.349721235319	106
4	842	66.349721235319	107
4	873	67.414582143796	108
4	873	67.414582143796	109
4	873	67.414582143796	110
4	894	68.433954876684	111
4	894	68.433954876684	112
4	894	68.433954876684	113
4	923	72.252896842927	114
4	923	72.252896842927	115
4	923	72.252896842927	116
4	955	74.222737105275	117
4	955	74.222737105275	118
4	955	74.222737105275	119
4	970	75.518304216995	120
4	970	75.518304216995	121
4	970	75.518304216995	122
4	998	76.853361391506	123
4	998	76.853361391506	124
4	998	76.853361391506	125
4	1014	78.738387427205	126
4	1014	78.738387427205	127
4	1014	78.738387427205	128
4	1034	80.099787341937	129
4	1034	80.099787341937	130
4	1034	80.099787341937	131
4	1053	81.830012488879	132
4	1053	81.830012488879	133
4	1053	81.830012488879	134
4	1081	83.496156684374	135
4	1081	83.496156684374	136
4	1081	83.496156684374	137
4	1110	85.468809660882	138
4	1110	85.468809660882	139
4	1110	85.468809660882	140
4	1123	87.133633428239	141
4	1123	87.133633428239	142
4	1123	87.133633428239	143
4	1146	88.533054608206	144
4	1146	88.533054608206	145
4	1146	88.533054608206	146
4	1202	92.929793226452	147
4	1202	92.929793226452	148
4	1202	92.929793226452	149
4	1221	94.294459569789	150
4	1221	94.294459569789	151
4	1221	94.294459569789	152
4	1242	95.798309916396	153
4	1242	95.798309916396	154
4	1242	95.798309916396	155
4	1271	97.377215998504	156
4	1271	97.377215998504	157
4	1271	97.377215998504	158
4	1287	98.4382082436	159
4	1287	98.4382082436	160
4	1287	98.4382082436	161
4	1325	101.698916597007	162
4	1325	101.698916597007	163
4	1325	101.698916597007	164
4	1339	103.610955807507	165
4	1339	103.610955807507	166
4	1339	103.610955807507	167
4	1361	104.865143553931	168
4	1361	104.865143553931	169
4	1361	104.865143553931	170
4	1383	106.491035521287	171
4	1383	106.491035521287	172
4	1383	106.491035521287	173
4	1402	108.174967551819	174
4	1402	108.174967551819	175
4	1402	108.174967551819	176
4	1425	111.969780381814	177
4	1425	111.969780381814	178
4	1425	111.969780381814	179
4	1460	115.238632463137	180
4	1460	115.238632463137	181
4	1460	115.238632463137	182
4	1484	118.595855074829	183
4	1484	118.595855074829	184
4	1484	118.595855074829	185
4	1501	120.114491068046	186
4	1501	120.114491068046	187
4	1501	120.114491068046	188
4	1527	121.978228291792	189
4	1527	121.978228291792	190
4	1527	121.978228291792	191
4	1552	123.948714201207	192
4	1552	123.948714201207	193
4	1552	123.948714201207	194
4	1578	125.228451839972	195
4	1578	125.228451839972	196
4	1578	125.228451839972	197
4	1599	127.098624698541	198
4	1599	127.098624698541	199
4	1599	127.098624698541	200
4	1624	129.001432921263	201
4	1624	129.001432921263	202
4	1624	129.001432921263	203
4	1645	130.726312944307	204
4	1645	130.726312944307	205
4	1645	130.726312944307	206
4	1656	132.000851359603	207
4	1656	132.000851359603	208
4	1656	132.000851359603	209
4	1678	133.347736251578	210
4	1678	133.347736251578	211
4	1678	133.347736251578	212
4	1704	134.453196785855	213
4	1704	134.453196785855	214
4	1704	134.453196785855	215
4	1726	137.828120374409	216
4	1726	137.828120374409	217
4	1726	137.828120374409	218
4	1748	139.159635778983	219
4	1748	139.159635778983	220
4	1748	139.159635778983	221
4	1772	141.073946525233	222
4	1772	141.073946525233	223
4	1772	141.073946525233	224
4	1795	142.35019705425	225
4	1795	142.35019705425	226
4	1795	142.35019705425	227
4	1822	143.556475347395	228
4	1822	143.556475347395	229
4	1822	143.556475347395	230
4	1840	145.411740421527	231
4	1840	145.411740421527	232
4	1840	145.411740421527	233
4	1868	147.149679861984	234
4	1868	147.149679861984	235
4	1868	147.149679861984	236
4	1883	148.162914752991	237
4	1883	148.162914752991	238
4	1883	148.162914752991	239
4	1904	150.187866357612	240
4	1904	150.187866357612	241
4	1904	150.187866357612	242
4	1936	151.982643314647	243
4	1936	151.982643314647	244
4	1936	151.982643314647	245
4	1958	153.604052669115	246
4	1958	153.604052669115	247
4	1958	153.604052669115	248
4	1986	154.962878031412	249
4	1986	154.962878031412	250
4	1986	154.962878031412	251
4	2001	156.843508907524	252
4	2001	156.843508907524	253
4	2001	156.843508907524	254
4	2043	161.066868601633	255
4	2043	161.066868601633	256
4	2043	161.066868601633	257
4	2074	163.682025923797	258
4	2074	163.682025923797	259
4	2074	163.682025923797	260
4	2093	164.751709966056	261
4	2093	164.751709966056	262
4	2093	164.751709966056	263
4	2112	166.076532998817	264
4	2112	166.076532998817	265
4	2112	166.076532998817	266
4	2149	170.567757296676	267
4	2149	170.567757296676	268
4	2149	170.567757296676	269
4	2176	172.499033272784	270
4	2176	172.499033272784	271
4	2176	172.499033272784	272
4	2198	174.462365269105	273
4	2198	174.462365269105	274
4	2198	174.462365269105	275
4	2224	175.573888208017	276
4	2224	175.573888208017	277
4	2224	175.573888208017	278
4	2250	177.369583691629	279
4	2250	177.369583691629	280
4	2250	177.369583691629	281
4	2264	178.865567965045	282
4	2264	178.865567965045	283
4	2264	178.865567965045	284
4	2290	180.225491688139	285
4	2290	180.225491688139	286
4	2290	180.225491688139	287
4	2322	181.657410155184	288
4	2322	181.657410155184	289
4	2322	181.657410155184	290
4	2333	182.856433488464	291
4	2333	182.856433488464	292
4	2333	182.856433488464	293
4	2351	184.779707584457	294
4	2351	184.779707584457	295
4	2351	184.779707584457	296
4	2372	186.046455053279	297
4	2372	186.046455053279	298
4	2372	186.046455053279	299
4	2395	187.968694064132	300
4	2395	187.968694064132	301
4	2395	187.968694064132	302
4	2423	188.980466255664	303
4	2423	188.980466255664	304
4	2423	188.980466255664	305
4	2446	190.310348126569	306
4	2446	190.310348126569	307
4	2446	190.310348126569	308
4	2465	191.33339089339	309
4	2465	191.33339089339	310
4	2465	191.33339089339	311
4	2485	192.77449311182	312
4	2485	192.77449311182	313
4	2485	192.77449311182	314
4	2514	194.213831331997	315
4	2514	194.213831331997	316
4	2514	194.213831331997	317
4	2536	196.208966927771	318
4	2536	196.208966927771	319
4	2536	196.208966927771	320
4	2553	197.350703911221	321
4	2553	197.350703911221	322
4	2553	197.350703911221	323
4	2582	198.889977129818	324
4	2582	198.889977129818	325
4	2582	198.889977129818	326
4	2596	200.127219685769	327
4	2596	200.127219685769	328
4	2596	200.127219685769	329
4	2621	201.838386343182	330
4	2621	201.838386343182	331
4	2621	201.838386343182	332
4	2643	203.826308656998	333
4	2643	203.826308656998	334
4	2643	203.826308656998	335
4	2667	205.627571098167	336
4	2667	205.627571098167	337
4	2667	205.627571098167	338
4	2682	207.248058375827	339
4	2682	207.248058375827	340
4	2682	207.248058375827	341
4	2704	208.480445552945	342
4	2704	208.480445552945	343
4	2704	208.480445552945	344
4	2728	209.981408768038	345
4	2728	209.981408768038	346
4	2728	209.981408768038	347
4	2753	211.334900181813	348
4	2753	211.334900181813	349
4	2753	211.334900181813	350
4	2767	212.886353160526	351
4	2767	212.886353160526	352
4	2767	212.886353160526	353
4	2790	214.812924511643	354
4	2790	214.812924511643	355
4	2790	214.812924511643	356
4	2821	216.409823289385	357
4	2821	216.409823289385	358
4	2821	216.409823289385	359
4	2857	219.756605269206	360
4	2857	219.756605269206	361
4	2857	219.756605269206	362
4	2878	220.745781727691	363
4	2878	220.745781727691	364
4	2878	220.745781727691	365
4	2907	223.838792694623	366
4	2907	223.838792694623	367
4	2907	223.838792694623	368
4	2940	225.693865915442	369
4	2940	225.693865915442	370
4	2940	225.693865915442	371
4	2962	227.581210403432	372
4	2962	227.581210403432	373
4	2962	227.581210403432	374
4	2980	228.611093522293	375
4	2980	228.611093522293	376
4	2980	228.611093522293	377
4	3005	229.922117581584	378
4	3005	229.922117581584	379
4	3005	229.922117581584	380
4	3040	232.838829520329	381
4	3040	232.838829520329	382
4	3040	232.838829520329	383
4	3066	234.261849928086	384
4	3066	234.261849928086	385
4	3066	234.261849928086	386
4	3085	235.397245878826	387
4	3085	235.397245878826	388
4	3085	235.397245878826	389
4	3099	237.308971171458	390
4	3099	237.308971171458	391
4	3099	237.308971171458	392
5	37	1.771152856894	0
5	37	1.771152856894	1
5	37	1.771152856894	2
5	56	3.230770954706	3
5	56	3.230770954706	4
5	56	3.230770954706	5
5	81	4.710910312711	6
5	81	4.710910312711	7
5	81	4.710910312711	8
5	109	7.536786965095	9
5	109	7.536786965095	10
5	109	7.536786965095	11
5	215	17.318938316001	12
5	215	17.318938316001	13
5	215	17.318938316001	14
5	238	18.89784812663	15
5	238	18.89784812663	16
5	238	18.89784812663	17
5	276	22.305664384779	18
5	276	22.305664384779	19
5	276	22.305664384779	20
5	302	23.62122417764	21
5	302	23.62122417764	22
5	302	23.62122417764	23
5	327	25.052865427424	24
5	327	25.052865427424	25
5	327	25.052865427424	26
5	341	26.820443123431	27
5	341	26.820443123431	28
5	341	26.820443123431	29
5	387	31.032216995029	30
5	387	31.032216995029	31
5	387	31.032216995029	32
5	410	34.246189598809	33
5	410	34.246189598809	34
5	410	34.246189598809	35
5	431	35.322391835506	36
5	431	35.322391835506	37
5	431	35.322391835506	38
5	459	37.043173788324	39
5	459	37.043173788324	40
5	459	37.043173788324	41
5	487	38.031486001964	42
5	487	38.031486001964	43
5	487	38.031486001964	44
5	551	42.080095548934	45
5	551	42.080095548934	46
5	551	42.080095548934	47
5	569	43.848216914971	48
5	569	43.848216914971	49
5	569	43.848216914971	50
5	591	45.326586070856	51
5	591	45.326586070856	52
5	591	45.326586070856	53
5	641	48.140180807779	54
5	641	48.140180807779	55
5	641	48.140180807779	56
5	660	49.895838321188	57
5	660	49.895838321188	58
5	660	49.895838321188	59
5	698	53.715714512929	60
5	698	53.715714512929	61
5	698	53.715714512929	62
5	727	55.429051190389	63
5	727	55.429051190389	64
5	727	55.429051190389	65
5	744	56.577215988123	66
5	744	56.577215988123	67
5	744	56.577215988123	68
5	777	58.000535662482	69
5	777	58.000535662482	70
5	777	58.000535662482	71
5	800	59.955102253085	72
5	800	59.955102253085	73
5	800	59.955102253085	74
5	826	65.147651685214	75
5	826	65.147651685214	76
5	826	65.147651685214	77
5	852	66.366460669761	78
5	852	66.366460669761	79
5	852	66.366460669761	80
5	869	67.396492346845	81
5	869	67.396492346845	82
5	869	67.396492346845	83
5	898	68.447472550538	84
5	898	68.447472550538	85
5	898	68.447472550538	86
5	933	72.26478249017	87
5	933	72.26478249017	88
5	933	72.26478249017	89
5	951	74.211125679487	90
5	951	74.211125679487	91
5	951	74.211125679487	92
5	977	75.528499109925	93
5	977	75.528499109925	94
5	977	75.528499109925	95
5	1020	78.749492585971	96
5	1020	78.749492585971	97
5	1020	78.749492585971	98
5	1058	81.837302682717	99
5	1058	81.837302682717	100
5	1058	81.837302682717	101
5	1082	83.497725155242	102
5	1082	83.497725155242	103
5	1082	83.497725155242	104
5	1106	85.446969383519	105
5	1106	85.446969383519	106
5	1106	85.446969383519	107
5	1132	87.147200611213	108
5	1132	87.147200611213	109
5	1132	87.147200611213	110
5	1154	88.544803710807	111
5	1154	88.544803710807	112
5	1154	88.544803710807	113
5	1228	94.309526516118	114
5	1228	94.309526516118	115
5	1228	94.309526516118	116
5	1253	95.848065516826	117
5	1253	95.848065516826	118
5	1253	95.848065516826	119
5	1272	97.377780251626	120
5	1272	97.377780251626	121
5	1272	97.377780251626	122
5	1300	98.471110815799	123
5	1300	98.471110815799	124
5	1300	98.471110815799	125
5	1321	101.68851201745	126
5	1321	101.68851201745	127
5	1321	101.68851201745	128
5	1368	104.888509238104	129
5	1368	104.888509238104	130
5	1368	104.888509238104	131
5	1388	106.508462758784	132
5	1388	106.508462758784	133
5	1388	106.508462758784	134
5	1456	115.224098328954	135
5	1456	115.224098328954	136
5	1456	115.224098328954	137
5	1488	118.615344938297	138
5	1488	118.615344938297	139
5	1488	118.615344938297	140
5	1511	120.150205471331	141
5	1511	120.150205471331	142
5	1511	120.150205471331	143
5	1535	121.993408582363	144
5	1535	121.993408582363	145
5	1535	121.993408582363	146
5	1557	123.966381455028	147
5	1557	123.966381455028	148
5	1557	123.966381455028	149
5	1595	127.082019959598	150
5	1595	127.082019959598	151
5	1595	127.082019959598	152
5	1664	132.023843352927	153
5	1664	132.023843352927	154
5	1664	132.023843352927	155
5	1686	133.388478740777	156
5	1686	133.388478740777	157
5	1686	133.388478740777	158
5	1708	134.463543432881	159
5	1708	134.463543432881	160
5	1708	134.463543432881	161
5	1734	137.846104403971	162
5	1734	137.846104403971	163
5	1734	137.846104403971	164
5	1758	139.197097388938	165
5	1758	139.197097388938	166
5	1758	139.197097388938	167
5	1783	141.1040416114	168
5	1783	141.1040416114	169
5	1783	141.1040416114	170
5	1848	145.426853885665	171
5	1848	145.426853885665	172
5	1848	145.426853885665	173
5	1893	148.176637570822	174
5	1893	148.176637570822	175
5	1893	148.176637570822	176
5	1918	150.231589020799	177
5	1918	150.231589020799	178
5	1918	150.231589020799	179
5	1940	151.996708240323	180
5	1940	151.996708240323	181
5	1940	151.996708240323	182
5	1966	153.622661306098	183
5	1966	153.622661306098	184
5	1966	153.622661306098	185
5	2009	156.86337753155	186
5	2009	156.86337753155	187
5	2009	156.86337753155	188
5	2047	161.071412589769	189
5	2047	161.071412589769	190
5	2047	161.071412589769	191
5	2081	163.693263398279	192
5	2081	163.693263398279	193
5	2081	163.693263398279	194
5	2121	166.089137249512	195
5	2121	166.089137249512	196
5	2121	166.089137249512	197
5	2160	170.590868351313	198
5	2160	170.590868351313	199
5	2160	170.590868351313	200
5	2184	172.546077010263	201
5	2184	172.546077010263	202
5	2184	172.546077010263	203
5	2206	174.488837629135	204
5	2206	174.488837629135	205
5	2206	174.488837629135	206
5	2228	175.589710961329	207
5	2228	175.589710961329	208
5	2228	175.589710961329	209
5	2244	177.344220994647	210
5	2244	177.344220994647	211
5	2244	177.344220994647	212
5	2269	178.878864950244	213
5	2269	178.878864950244	214
5	2269	178.878864950244	215
5	2300	180.24244377757	216
5	2300	180.24244377757	217
5	2300	180.24244377757	218
5	2318	181.639546249641	219
5	2318	181.639546249641	220
5	2318	181.639546249641	221
5	2358	184.818643984173	222
5	2358	184.818643984173	223
5	2358	184.818643984173	224
5	2380	186.076618662468	225
5	2380	186.076618662468	226
5	2380	186.076618662468	227
5	2405	188.00719908623	228
5	2405	188.00719908623	229
5	2405	188.00719908623	230
5	2427	188.991836070777	231
5	2427	188.991836070777	232
5	2427	188.991836070777	233
5	2445	190.309247615784	234
5	2445	190.309247615784	235
5	2445	190.309247615784	236
5	2492	192.785171596642	237
5	2492	192.785171596642	238
5	2492	192.785171596642	239
5	2507	194.198426398077	240
5	2507	194.198426398077	241
5	2507	194.198426398077	242
5	2535	196.205371787266	243
5	2535	196.205371787266	244
5	2535	196.205371787266	245
5	2558	197.363289943918	246
5	2558	197.363289943918	247
5	2558	197.363289943918	248
5	2638	203.811828482227	249
5	2638	203.811828482227	250
5	2638	203.811828482227	251
5	2689	207.265338275395	252
5	2689	207.265338275395	253
5	2689	207.265338275395	254
5	2724	209.963462365421	255
5	2724	209.963462365421	256
5	2724	209.963462365421	257
5	2772	212.90415814442	258
5	2772	212.90415814442	259
5	2772	212.90415814442	260
5	2795	214.820466783187	261
5	2795	214.820466783187	262
5	2795	214.820466783187	263
5	2825	216.422925022966	264
5	2825	216.422925022966	265
5	2825	216.422925022966	266
5	2839	218.186959516723	267
5	2839	218.186959516723	268
5	2839	218.186959516723	269
5	2882	220.765656224964	270
5	2882	220.765656224964	271
5	2882	220.765656224964	272
5	2896	222.174220092671	273
5	2896	222.174220092671	274
5	2896	222.174220092671	275
5	2919	223.856513425063	276
5	2919	223.856513425063	277
5	2919	223.856513425063	278
5	2939	225.684799186596	279
5	2939	225.684799186596	280
5	2939	225.684799186596	281
5	2961	227.575106304287	282
5	2961	227.575106304287	283
5	2961	227.575106304287	284
5	2987	228.621973602813	285
5	2987	228.621973602813	286
5	2987	228.621973602813	287
5	3026	231.075421834906	288
5	3026	231.075421834906	289
5	3026	231.075421834906	290
5	3045	232.855790279571	291
5	3045	232.855790279571	292
5	3045	232.855790279571	293
5	3070	234.284492801832	294
5	3070	234.284492801832	295
5	3070	234.284492801832	296
5	3113	237.337620023467	297
5	3113	237.337620023467	298
5	3113	237.337620023467	299
6	40	1.781152856894	0
6	62	3.240770954706	1
6	279	22.315664384779	2
6	330	25.062865427424	3
6	368	29.236955205047	4
6	418	34.256189598809	5
6	438	35.332391835506	6
6	462	37.053173788324	7
6	554	42.090095548934	8
6	573	43.858216914971	9
6	731	55.439051190389	10
6	733	55.44673259676	11
6	748	56.587215988123	12
6	802	59.962021505838	13
6	856	66.376460669761	14
6	908	68.477488224365	15
6	936	72.27478249017	16
6	1088	83.507725155242	17
6	1136	87.157200611213	18
6	1138	87.161428778527	19
6	1667	132.033843352927	20
6	1739	137.856104403971	21
6	1828	143.577389733875	22
6	1850	145.432839449279	23
6	1943	152.006708240323	24
6	1968	153.625518627041	25
6	2056	161.105730089902	26
6	2162	170.596034314894	27
6	2209	174.498837629135	28
6	2249	177.354220994647	29
6	2281	178.895739857972	30
6	2449	190.319247615784	31
6	2513	194.208426398077	32
6	2539	196.215371787266	33
6	2565	197.373289943918	34
6	2605	200.158882055253	35
6	2652	203.848609068911	36
6	2990	228.631973602813	37
6	3051	232.865790279571	38
6	3112	237.333156419577	39
6	3116	237.347620023467	40
7	177	14.357379468625	0
7	177	14.357379468625	1
7	198	16.050891073851	2
7	198	16.050891073851	3
7	245	18.913077452618	4
7	245	18.913077452618	5
7	303	23.627328830329	6
7	303	23.627328830329	7
7	366	29.226955205047	8
7	366	29.226955205047	9
7	463	37.063434821098	10
7	463	37.063434821098	11
7	482	38.017797094469	12
7	482	38.017797094469	13
7	509	39.081548338485	14
7	509	39.081548338485	15
7	544	42.063083081646	16
7	544	42.063083081646	17
7	617	46.34523297994	18
7	617	46.34523297994	19
7	635	48.128630415432	20
7	635	48.128630415432	21
7	728	55.43673259676	22
7	728	55.43673259676	23
7	756	56.613012140118	24
7	756	56.613012140118	25
7	799	59.952021505838	26
7	799	59.952021505838	27
7	853	66.369903411107	28
7	853	66.369903411107	29
7	881	67.437984903416	30
7	881	67.437984903416	31
7	903	68.467488224365	32
7	903	68.467488224365	33
7	959	74.238748651739	34
7	959	74.238748651739	35
7	1042	80.130926410083	36
7	1042	80.130926410083	37
7	1089	83.541941701632	38
7	1089	83.541941701632	39
7	1133	87.151428778527	40
7	1133	87.151428778527	41
7	1155	88.546621770733	42
7	1155	88.546621770733	43
7	1250	95.825079263726	44
7	1250	95.825079263726	45
7	1297	98.450303888457	46
7	1297	98.450303888457	47
7	1365	104.875447633869	48
7	1365	104.875447633869	49
7	1387	106.506214755738	50
7	1387	106.506214755738	51
7	1510	120.145479252332	52
7	1510	120.145479252332	53
7	1539	122.011264360558	54
7	1539	122.011264360558	55
7	1582	125.244108069182	56
7	1582	125.244108069182	57
7	1607	127.13485295376	58
7	1607	127.13485295376	59
7	1628	129.014087871689	60
7	1628	129.014087871689	61
7	1712	134.474720896049	62
7	1712	134.474720896049	63
7	1780	141.085472286714	64
7	1780	141.085472286714	65
7	1805	142.372146335584	66
7	1805	142.372146335584	67
7	1826	143.567389733875	68
7	1826	143.567389733875	69
7	1847	145.422839449279	70
7	1847	145.422839449279	71
7	1872	147.162576218963	72
7	1872	147.162576218963	73
7	1908	150.199848370818	74
7	1908	150.199848370818	75
7	1944	152.015930573519	76
7	1944	152.015930573519	77
7	1963	153.615518627041	78
7	1963	153.615518627041	79
7	1990	154.975497027318	80
7	1990	154.975497027318	81
7	2054	161.095730089902	82
7	2054	161.095730089902	83
7	2156	170.586034314894	84
7	2156	170.586034314894	85
7	2254	177.396942389437	86
7	2254	177.396942389437	87
7	2274	178.885739857972	88
7	2274	178.885739857972	89
7	2337	182.882462543839	90
7	2337	182.882462543839	91
7	2381	186.082762634941	92
7	2381	186.082762634941	93
7	2471	191.348922205601	94
7	2471	191.348922205601	95
7	2518	194.226922847509	96
7	2518	194.226922847509	97
7	2543	196.21933089867	98
7	2543	196.21933089867	99
7	2559	197.368743365818	100
7	2559	197.368743365818	101
7	2586	198.904541765958	102
7	2586	198.904541765958	103
7	2601	200.148882055253	104
7	2601	200.148882055253	105
7	2650	203.838609068911	106
7	2650	203.838609068911	107
7	2711	208.491228166424	108
7	2711	208.491228166424	109
7	2736	210.022844263874	110
7	2736	210.022844263874	111
7	2773	212.908326238526	112
7	2773	212.908326238526	113
7	2804	214.837409186435	114
7	2804	214.837409186435	115
7	2861	219.771657186382	116
7	2861	219.771657186382	117
7	2918	223.856270503074	118
7	2918	223.856270503074	119
7	2991	228.633804236904	120
7	2991	228.633804236904	121
7	3009	229.958655864688	122
7	3009	229.958655864688	123
7	3108	237.323156419577	124
7	3108	237.323156419577	125

