version 2
run General-4-20231008-09:10:41-18810
attr configname General
attr datetime 20231008-09:10:41
attr experiment General
attr inifile omnetpp.ini
attr iterationvars ""
attr iterationvarsf ""
attr measurement ""
attr network Network3
attr processid 18810
attr repetition 4
attr replication #4
attr resultdir results
attr runnumber 4
attr seedset 4
param Network3.node[*].transmissionTime "uniform(1s, 2s)"
param Network3.node[*].delayTime "uniform(0.01s, 0.2s)"
param Network3.node[*].processingTime exponential(0.01s)
param Network3.node[0].lossProbability 0
param Network3.node[1].lossProbability 0.25
param Network3.node[2].lossProbability 0.25
param Network3.node[3].lossProbability "0.25 / 2"
param Network3.node[4].lossProbability "0.25 / 2"
param Network3.node[6].lossProbability "0.25 * 2"
param Network3.node[7].lossProbability "0.25 * 2"
param Network3.node[5].lossProbability "0.25 * 3"

vector 0 Network3.node[0] txVector ETV
vector 1 Network3.node[1] txVector ETV
vector 2 Network3.node[3] txVector ETV
vector 3 Network3.node[2] txVector ETV
vector 4 Network3.node[4] txVector ETV
vector 5 Network3.node[6] txVector ETV
vector 6 Network3.node[7] txVector ETV
vector 7 Network3.node[5] rxVector ETV
0	1	0.193735669288	0
0	1	0.193735669288	1
0	26	2.094357123985	2
0	26	2.094357123985	3
0	43	4.077757797358	4
0	43	4.077757797358	5
0	68	5.117538159402	6
0	68	5.117538159402	7
0	90	6.275761566978	8
0	90	6.275761566978	9
0	112	7.778294628175	10
0	112	7.778294628175	11
0	134	9.696677667243	12
0	134	9.696677667243	13
0	140	10.78133927953	14
0	140	10.78133927953	15
0	146	12.513932731622	16
0	146	12.513932731622	17
0	149	14.117496241736	18
0	149	14.117496241736	19
0	164	16.061446914836	20
0	164	16.061446914836	21
0	189	17.745470130039	22
0	189	17.745470130039	23
0	211	18.898498382108	24
0	211	18.898498382108	25
0	233	20.775291238833	26
0	233	20.775291238833	27
0	252	22.692803047519	28
0	252	22.692803047519	29
0	277	23.708774323497	30
0	277	23.708774323497	31
0	299	25.6446681576	32
0	299	25.6446681576	33
0	320	27.535655897033	34
0	320	27.535655897033	35
0	345	28.901992035021	36
0	345	28.901992035021	37
0	367	30.30720559919	38
0	367	30.30720559919	39
0	392	31.70134193233	40
0	392	31.70134193233	41
0	407	33.034798312157	42
0	407	33.034798312157	43
0	429	34.497648070257	44
0	429	34.497648070257	45
0	432	35.682109441532	46
0	432	35.682109441532	47
0	454	37.230914564029	48
0	454	37.230914564029	49
0	473	38.890808798297	50
0	473	38.890808798297	51
0	491	40.086833191727	52
0	491	40.086833191727	53
0	516	42.038501783897	54
0	516	42.038501783897	55
0	537	43.681810310733	56
0	537	43.681810310733	57
0	555	44.75077974486	58
0	555	44.75077974486	59
0	580	45.991808575968	60
0	580	45.991808575968	61
0	590	47.6688759098	62
0	590	47.6688759098	63
0	593	49.240700603387	64
0	593	49.240700603387	65
0	615	51.090765738784	66
0	615	51.090765738784	67
0	640	52.092121610109	68
0	640	52.092121610109	69
0	643	53.527397920534	70
0	643	53.527397920534	71
0	668	54.684491387958	72
0	668	54.684491387958	73
0	686	56.530030482373	74
0	686	56.530030482373	75
0	708	58.227081921342	76
0	708	58.227081921342	77
0	733	59.706769743161	78
0	733	59.706769743161	79
0	758	61.157664083801	80
0	758	61.157664083801	81
0	783	62.939568572137	82
0	783	62.939568572137	83
0	808	64.621507778223	84
0	808	64.621507778223	85
0	830	66.096434850171	86
0	830	66.096434850171	87
0	855	67.217366112787	88
0	855	67.217366112787	89
0	880	69.078689445201	90
0	880	69.078689445201	91
0	894	70.785836067442	92
0	894	70.785836067442	93
0	919	72.090177596007	94
0	919	72.090177596007	95
0	944	73.861875702553	96
0	944	73.861875702553	97
0	966	75.671957968427	98
0	966	75.671957968427	99
0	991	77.508014863981	100
0	991	77.508014863981	101
0	1013	78.831776179997	102
0	1013	78.831776179997	103
0	1038	80.079070019694	104
0	1038	80.079070019694	105
0	1063	81.200243830839	106
0	1063	81.200243830839	107
0	1085	82.92732562839	108
0	1085	82.92732562839	109
0	1106	84.314824187587	110
0	1106	84.314824187587	111
0	1128	86.293145623215	112
0	1128	86.293145623215	113
0	1149	88.283813439932	114
0	1149	88.283813439932	115
0	1152	89.319181196315	116
0	1152	89.319181196315	117
0	1170	90.465492802363	118
0	1170	90.465492802363	119
0	1191	91.543051970581	120
0	1191	91.543051970581	121
0	1216	93.386044673546	122
0	1216	93.386044673546	123
0	1230	94.791707562906	124
0	1230	94.791707562906	125
0	1249	95.971637670108	126
0	1249	95.971637670108	127
0	1252	97.513489126152	128
0	1252	97.513489126152	129
0	1274	98.790786619688	130
0	1274	98.790786619688	131
0	1292	99.916273219202	132
0	1292	99.916273219202	133
0	1310	101.455294299096	134
0	1310	101.455294299096	135
0	1324	102.95846311787	136
0	1324	102.95846311787	137
0	1349	104.649658766034	138
0	1349	104.649658766034	139
0	1374	105.982927239657	140
0	1374	105.982927239657	141
0	1396	107.660795693908	142
0	1396	107.660795693908	143
0	1399	108.838661085971	144
0	1399	108.838661085971	145
0	1424	110.270287553937	146
0	1424	110.270287553937	147
0	1449	111.896434328909	148
0	1449	111.896434328909	149
0	1466	113.804208481376	150
0	1466	113.804208481376	151
0	1480	115.760225905728	152
0	1480	115.760225905728	153
0	1505	116.86153360728	154
0	1505	116.86153360728	155
0	1530	118.044320742756	156
0	1530	118.044320742756	157
0	1552	119.30023606207	158
0	1552	119.30023606207	159
0	1574	120.50814830737	160
0	1574	120.50814830737	161
0	1599	121.528720605576	162
0	1599	121.528720605576	163
0	1621	123.350145981105	164
0	1621	123.350145981105	165
0	1635	124.870157192385	166
0	1635	124.870157192385	167
0	1660	126.064170723938	168
0	1660	126.064170723938	169
0	1685	127.32340927787	170
0	1685	127.32340927787	171
0	1707	128.703385316691	172
0	1707	128.703385316691	173
0	1729	130.668846360565	174
0	1729	130.668846360565	175
0	1743	132.402052425704	176
0	1743	132.402052425704	177
0	1765	133.986825461191	178
0	1765	133.986825461191	179
0	1787	135.772590305813	180
0	1787	135.772590305813	181
0	1809	137.239574844174	182
0	1809	137.239574844174	183
0	1834	139.063616789335	184
0	1834	139.063616789335	185
0	1856	140.158218095002	186
0	1856	140.158218095002	187
0	1877	141.462916752945	188
0	1877	141.462916752945	189
0	1902	143.084963360492	190
0	1902	143.084963360492	191
0	1927	145.030171888338	192
0	1927	145.030171888338	193
0	1949	146.712340416543	194
0	1949	146.712340416543	195
0	1952	148.660388791391	196
0	1952	148.660388791391	197
0	1962	150.603740161906	198
0	1962	150.603740161906	199
0	1980	152.247602920902	200
0	1980	152.247602920902	201
0	2002	154.239093218387	202
0	2002	154.239093218387	203
0	2024	155.857579127342	204
0	2024	155.857579127342	205
0	2046	157.244995709198	206
0	2046	157.244995709198	207
0	2068	158.60944151824	208
0	2068	158.60944151824	209
0	2093	160.093404688794	210
0	2093	160.093404688794	211
0	2111	161.378718997041	212
0	2111	161.378718997041	213
0	2117	162.901750177766	214
0	2117	162.901750177766	215
0	2139	164.792264155733	216
0	2139	164.792264155733	217
0	2164	166.518244890884	218
0	2164	166.518244890884	219
0	2189	168.362019994684	220
0	2189	168.362019994684	221
0	2210	169.742700525249	222
0	2210	169.742700525249	223
0	2232	171.170688162713	224
0	2232	171.170688162713	225
0	2257	172.558842228648	226
0	2257	172.558842228648	227
0	2282	174.385524458174	228
0	2282	174.385524458174	229
0	2304	175.416496380387	230
0	2304	175.416496380387	231
0	2326	177.020515897699	232
0	2326	177.020515897699	233
0	2351	178.044291812616	234
0	2351	178.044291812616	235
0	2373	179.797864537143	236
0	2373	179.797864537143	237
0	2383	181.72290284272	238
0	2383	181.72290284272	239
0	2408	183.351841622421	240
0	2408	183.351841622421	241
0	2430	185.344668579909	242
0	2430	185.344668579909	243
0	2455	186.545174781854	244
0	2455	186.545174781854	245
0	2469	187.554798353852	246
0	2469	187.554798353852	247
0	2494	188.798730665974	248
0	2494	188.798730665974	249
0	2501	190.273472173994	250
0	2501	190.273472173994	251
0	2526	191.507868753204	252
0	2526	191.507868753204	253
0	2548	192.624254764447	254
0	2548	192.624254764447	255
0	2566	194.513207947759	256
0	2566	194.513207947759	257
0	2584	195.991447027929	258
0	2584	195.991447027929	259
0	2605	197.641043999156	260
0	2605	197.641043999156	261
0	2630	199.075462205026	262
0	2630	199.075462205026	263
0	2652	201.047094356192	264
0	2652	201.047094356192	265
0	2677	202.115420667611	266
0	2677	202.115420667611	267
0	2695	203.233982310554	268
0	2695	203.233982310554	269
0	2717	204.260139682254	270
0	2717	204.260139682254	271
0	2735	206.046742894843	272
0	2735	206.046742894843	273
0	2757	207.65175954012	274
0	2757	207.65175954012	275
0	2779	209.477082771638	276
0	2779	209.477082771638	277
0	2804	211.467942953033	278
0	2804	211.467942953033	279
0	2814	213.07925983371	280
0	2814	213.07925983371	281
0	2824	214.803928687161	282
0	2824	214.803928687161	283
0	2849	216.648633773595	284
0	2849	216.648633773595	285
0	2871	218.186762236914	286
0	2871	218.186762236914	287
0	2881	219.969230205676	288
0	2881	219.969230205676	289
0	2903	221.728219380759	290
0	2903	221.728219380759	291
0	2925	223.228099393815	292
0	2925	223.228099393815	293
0	2928	224.677252284873	294
0	2928	224.677252284873	295
0	2953	225.695865294121	296
0	2953	225.695865294121	297
0	2975	227.082403425284	298
0	2975	227.082403425284	299
0	2989	228.30894325503	300
0	2989	228.30894325503	301
0	3011	230.272035072016	302
0	3011	230.272035072016	303
0	3029	231.812299944617	304
0	3029	231.812299944617	305
0	3054	233.742370169534	306
0	3054	233.742370169534	307
0	3076	235.232331858406	308
0	3076	235.232331858406	309
0	3101	236.652516940998	310
0	3101	236.652516940998	311
0	3123	237.980772633262	312
0	3123	237.980772633262	313
0	3145	239.390744905377	314
0	3145	239.390744905377	315
1	4	0.205631491707	0
1	4	0.205631491707	1
1	4	0.205631491707	2
1	29	2.106146503787	3
1	29	2.106146503787	4
1	29	2.106146503787	5
1	53	4.116762717374	6
1	53	4.116762717374	7
1	53	4.116762717374	8
1	79	5.165193898901	9
1	79	5.165193898901	10
1	79	5.165193898901	11
1	94	6.297366457147	12
1	94	6.297366457147	13
1	94	6.297366457147	14
1	115	7.79394783477	15
1	115	7.79394783477	16
1	115	7.79394783477	17
1	152	14.129274021345	18
1	152	14.129274021345	19
1	152	14.129274021345	20
1	167	16.078675840951	21
1	167	16.078675840951	22
1	167	16.078675840951	23
1	199	17.811449145311	24
1	199	17.811449145311	25
1	199	17.811449145311	26
1	221	18.96216428387	27
1	221	18.96216428387	28
1	221	18.96216428387	29
1	236	20.812128086645	30
1	236	20.812128086645	31
1	236	20.812128086645	32
1	256	22.710640121018	33
1	256	22.710640121018	34
1	256	22.710640121018	35
1	281	23.725705024416	36
1	281	23.725705024416	37
1	281	23.725705024416	38
1	309	25.680663459049	39
1	309	25.680663459049	40
1	309	25.680663459049	41
1	326	27.564010883276	42
1	326	27.564010883276	43
1	326	27.564010883276	44
1	356	28.942351417213	45
1	356	28.942351417213	46
1	356	28.942351417213	47
1	373	30.332786039566	48
1	373	30.332786039566	49
1	373	30.332786039566	50
1	395	31.733069282161	51
1	395	31.733069282161	52
1	395	31.733069282161	53
1	410	33.050328552256	54
1	410	33.050328552256	55
1	410	33.050328552256	56
1	443	35.752686316106	57
1	443	35.752686316106	58
1	443	35.752686316106	59
1	457	37.242897239875	60
1	457	37.242897239875	61
1	457	37.242897239875	62
1	476	38.906857034321	63
1	476	38.906857034321	64
1	476	38.906857034321	65
1	494	40.107703634267	66
1	494	40.107703634267	67
1	494	40.107703634267	68
1	526	42.098187247505	69
1	526	42.098187247505	70
1	526	42.098187247505	71
1	540	43.714758898358	72
1	540	43.714758898358	73
1	540	43.714758898358	74
1	558	44.767531563345	75
1	558	44.767531563345	76
1	558	44.767531563345	77
1	596	49.257479562681	78
1	596	49.257479562681	79
1	596	49.257479562681	80
1	634	51.230672259496	81
1	634	51.230672259496	82
1	634	51.230672259496	83
1	647	53.538704133385	84
1	647	53.538704133385	85
1	647	53.538704133385	86
1	672	54.699863808228	87
1	672	54.699863808228	88
1	672	54.699863808228	89
1	689	56.571056073784	90
1	689	56.571056073784	91
1	689	56.571056073784	92
1	711	58.246399626094	93
1	711	58.246399626094	94
1	711	58.246399626094	95
1	736	59.718628435551	96
1	736	59.718628435551	97
1	736	59.718628435551	98
1	765	61.1882513777	99
1	765	61.1882513777	100
1	765	61.1882513777	101
1	786	62.95773699821	102
1	786	62.95773699821	103
1	786	62.95773699821	104
1	811	64.632804738829	105
1	811	64.632804738829	106
1	811	64.632804738829	107
1	840	66.145497397956	108
1	840	66.145497397956	109
1	840	66.145497397956	110
1	858	67.229824519563	111
1	858	67.229824519563	112
1	858	67.229824519563	113
1	883	69.09289960327	114
1	883	69.09289960327	115
1	883	69.09289960327	116
1	898	70.809998507071	117
1	898	70.809998507071	118
1	898	70.809998507071	119
1	922	72.115052329147	120
1	922	72.115052329147	121
1	922	72.115052329147	122
1	950	73.894213365549	123
1	950	73.894213365549	124
1	950	73.894213365549	125
1	973	75.704748957813	126
1	973	75.704748957813	127
1	973	75.704748957813	128
1	1002	77.624985887113	129
1	1002	77.624985887113	130
1	1002	77.624985887113	131
1	1016	78.847928672067	132
1	1016	78.847928672067	133
1	1016	78.847928672067	134
1	1048	80.129941453784	135
1	1048	80.129941453784	136
1	1048	80.129941453784	137
1	1066	81.217004089134	138
1	1066	81.217004089134	139
1	1066	81.217004089134	140
1	1092	82.955951473867	141
1	1092	82.955951473867	142
1	1092	82.955951473867	143
1	1110	84.330530081	144
1	1110	84.330530081	145
1	1110	84.330530081	146
1	1138	86.349154422433	147
1	1138	86.349154422433	148
1	1138	86.349154422433	149
1	1158	89.349020409907	150
1	1158	89.349020409907	151
1	1158	89.349020409907	152
1	1180	90.513658193061	153
1	1180	90.513658193061	154
1	1180	90.513658193061	155
1	1202	91.596183744472	156
1	1202	91.596183744472	157
1	1202	91.596183744472	158
1	1219	93.399948745961	159
1	1219	93.399948745961	160
1	1219	93.399948745961	161
1	1233	94.806140834089	162
1	1233	94.806140834089	163
1	1233	94.806140834089	164
1	1256	97.528834954319	165
1	1256	97.528834954319	166
1	1256	97.528834954319	167
1	1277	98.802968751074	168
1	1277	98.802968751074	169
1	1277	98.802968751074	170
1	1298	99.938633977554	171
1	1298	99.938633977554	172
1	1298	99.938633977554	173
1	1320	101.51885239233	174
1	1320	101.51885239233	175
1	1320	101.51885239233	176
1	1327	102.972107404527	177
1	1327	102.972107404527	178
1	1327	102.972107404527	179
1	1355	104.674406773052	180
1	1355	104.674406773052	181
1	1355	104.674406773052	182
1	1380	106.019307270362	183
1	1380	106.019307270362	184
1	1380	106.019307270362	185
1	1409	108.895033517602	186
1	1409	108.895033517602	187
1	1409	108.895033517602	188
1	1427	110.28533073503	189
1	1427	110.28533073503	190
1	1427	110.28533073503	191
1	1452	111.913757385755	192
1	1452	111.913757385755	193
1	1452	111.913757385755	194
1	1469	113.821006347533	195
1	1469	113.821006347533	196
1	1469	113.821006347533	197
1	1484	115.774239965725	198
1	1484	115.774239965725	199
1	1484	115.774239965725	200
1	1523	116.934172870551	201
1	1523	116.934172870551	202
1	1523	116.934172870551	203
1	1533	118.063599583996	204
1	1533	118.063599583996	205
1	1533	118.063599583996	206
1	1555	119.312142202311	207
1	1555	119.312142202311	208
1	1555	119.312142202311	209
1	1581	120.530161199072	210
1	1581	120.530161199072	211
1	1581	120.530161199072	212
1	1602	121.555668115897	213
1	1602	121.555668115897	214
1	1602	121.555668115897	215
1	1624	123.361346166996	216
1	1624	123.361346166996	217
1	1624	123.361346166996	218
1	1638	124.881694252317	219
1	1638	124.881694252317	220
1	1638	124.881694252317	221
1	1663	126.084626888218	222
1	1663	126.084626888218	223
1	1663	126.084626888218	224
1	1689	127.340024963416	225
1	1689	127.340024963416	226
1	1689	127.340024963416	227
1	1711	128.7309942931	228
1	1711	128.7309942931	229
1	1711	128.7309942931	230
1	1735	130.717820921872	231
1	1735	130.717820921872	232
1	1735	130.717820921872	233
1	1753	132.495895149297	234
1	1753	132.495895149297	235
1	1753	132.495895149297	236
1	1768	134.003342807661	237
1	1768	134.003342807661	238
1	1768	134.003342807661	239
1	1791	135.794074873239	240
1	1791	135.794074873239	241
1	1791	135.794074873239	242
1	1813	137.259546721519	243
1	1813	137.259546721519	244
1	1813	137.259546721519	245
1	1840	139.093296944488	246
1	1840	139.093296944488	247
1	1840	139.093296944488	248
1	1859	140.169392180336	249
1	1859	140.169392180336	250
1	1859	140.169392180336	251
1	1880	141.477489771001	252
1	1880	141.477489771001	253
1	1880	141.477489771001	254
1	1906	143.117084411185	255
1	1906	143.117084411185	256
1	1906	143.117084411185	257
1	1930	145.053775165632	258
1	1930	145.053775165632	259
1	1930	145.053775165632	260
1	1965	150.617078383547	261
1	1965	150.617078383547	262
1	1965	150.617078383547	263
1	1983	152.263029671519	264
1	1983	152.263029671519	265
1	1983	152.263029671519	266
1	2013	154.280795522301	267
1	2013	154.280795522301	268
1	2013	154.280795522301	269
1	2030	155.901251462818	270
1	2030	155.901251462818	271
1	2030	155.901251462818	272
1	2052	157.282402170839	273
1	2052	157.282402170839	274
1	2052	157.282402170839	275
1	2078	158.651873417579	276
1	2078	158.651873417579	277
1	2078	158.651873417579	278
1	2097	160.11004360396	279
1	2097	160.11004360396	280
1	2097	160.11004360396	281
1	2120	162.936297996955	282
1	2120	162.936297996955	283
1	2120	162.936297996955	284
1	2146	164.819718008763	285
1	2146	164.819718008763	286
1	2146	164.819718008763	287
1	2170	166.550412253201	288
1	2170	166.550412253201	289
1	2170	166.550412253201	290
1	2192	168.377742392529	291
1	2192	168.377742392529	292
1	2192	168.377742392529	293
1	2214	169.762565761282	294
1	2214	169.762565761282	295
1	2214	169.762565761282	296
1	2242	171.229547683974	297
1	2242	171.229547683974	298
1	2242	171.229547683974	299
1	2260	172.573354150378	300
1	2260	172.573354150378	301
1	2260	172.573354150378	302
1	2286	174.397769307292	303
1	2286	174.397769307292	304
1	2286	174.397769307292	305
1	2311	175.449813060687	306
1	2311	175.449813060687	307
1	2311	175.449813060687	308
1	2333	177.043474145653	309
1	2333	177.043474145653	310
1	2333	177.043474145653	311
1	2355	178.058557579742	312
1	2355	178.058557579742	313
1	2355	178.058557579742	314
1	2394	181.775133196138	315
1	2394	181.775133196138	316
1	2394	181.775133196138	317
1	2412	183.369009635933	318
1	2412	183.369009635933	319
1	2412	183.369009635933	320
1	2433	185.357467349638	321
1	2433	185.357467349638	322
1	2433	185.357467349638	323
1	2458	186.556205192513	324
1	2458	186.556205192513	325
1	2458	186.556205192513	326
1	2480	187.604222608521	327
1	2480	187.604222608521	328
1	2480	187.604222608521	329
1	2497	188.809091158576	330
1	2497	188.809091158576	331
1	2497	188.809091158576	332
1	2504	190.296292766212	333
1	2504	190.296292766212	334
1	2504	190.296292766212	335
1	2529	191.519310791	336
1	2529	191.519310791	337
1	2529	191.519310791	338
1	2551	192.663302961467	339
1	2551	192.663302961467	340
1	2551	192.663302961467	341
1	2569	194.526087640701	342
1	2569	194.526087640701	343
1	2569	194.526087640701	344
1	2587	196.008479204395	345
1	2587	196.008479204395	346
1	2587	196.008479204395	347
1	2608	197.660747588329	348
1	2608	197.660747588329	349
1	2608	197.660747588329	350
1	2633	199.088149270544	351
1	2633	199.088149270544	352
1	2633	199.088149270544	353
1	2655	201.058878169449	354
1	2655	201.058878169449	355
1	2655	201.058878169449	356
1	2683	202.144788030244	357
1	2683	202.144788030244	358
1	2683	202.144788030244	359
1	2698	203.247160338962	360
1	2698	203.247160338962	361
1	2698	203.247160338962	362
1	2720	204.277248854911	363
1	2720	204.277248854911	364
1	2720	204.277248854911	365
1	2739	206.068442030618	366
1	2739	206.068442030618	367
1	2739	206.068442030618	368
1	2771	207.702763877451	369
1	2771	207.702763877451	370
1	2771	207.702763877451	371
1	2790	209.535174877999	372
1	2790	209.535174877999	373
1	2790	209.535174877999	374
1	2827	214.822058224921	375
1	2827	214.822058224921	376
1	2827	214.822058224921	377
1	2852	216.667827207929	378
1	2852	216.667827207929	379
1	2852	216.667827207929	380
1	2884	219.982711268001	381
1	2884	219.982711268001	382
1	2884	219.982711268001	383
1	2906	221.770272802147	384
1	2906	221.770272802147	385
1	2906	221.770272802147	386
1	2931	224.719074057836	387
1	2931	224.719074057836	388
1	2931	224.719074057836	389
1	2957	225.707830207916	390
1	2957	225.707830207916	391
1	2957	225.707830207916	392
1	2979	227.101804665062	393
1	2979	227.101804665062	394
1	2979	227.101804665062	395
1	2992	228.323483198277	396
1	2992	228.323483198277	397
1	2992	228.323483198277	398
1	3014	230.284071032531	399
1	3014	230.284071032531	400
1	3014	230.284071032531	401
1	3032	231.838281368356	402
1	3032	231.838281368356	403
1	3032	231.838281368356	404
1	3058	233.753734780784	405
1	3058	233.753734780784	406
1	3058	233.753734780784	407
1	3079	235.244985993889	408
1	3079	235.244985993889	409
1	3079	235.244985993889	410
1	3107	236.674085334718	411
1	3107	236.674085334718	412
1	3107	236.674085334718	413
1	3133	238.046574536916	414
1	3133	238.046574536916	415
1	3133	238.046574536916	416
1	3148	239.412015546805	417
1	3148	239.412015546805	418
1	3148	239.412015546805	419
2	8	0.218066095948	0
2	8	0.218066095948	1
2	8	0.218066095948	2
2	34	2.121033415895	3
2	34	2.121033415895	4
2	34	2.121033415895	5
2	57	4.145311506946	6
2	57	4.145311506946	7
2	57	4.145311506946	8
2	86	5.184781403074	9
2	86	5.184781403074	10
2	86	5.184781403074	11
2	105	6.333874651141	12
2	105	6.333874651141	13
2	105	6.333874651141	14
2	120	7.808354195298	15
2	120	7.808354195298	16
2	120	7.808354195298	17
2	156	14.143843231853	18
2	156	14.143843231853	19
2	156	14.143843231853	20
2	174	16.104128889404	21
2	174	16.104128889404	22
2	174	16.104128889404	23
2	203	17.822642729346	24
2	203	17.822642729346	25
2	203	17.822642729346	26
2	225	18.973736230771	27
2	225	18.973736230771	28
2	225	18.973736230771	29
2	241	20.830371322166	30
2	241	20.830371322166	31
2	241	20.830371322166	32
2	266	22.727649918432	33
2	266	22.727649918432	34
2	266	22.727649918432	35
2	291	23.748450841395	36
2	291	23.748450841395	37
2	291	23.748450841395	38
2	313	25.706159060624	39
2	313	25.706159060624	40
2	313	25.706159060624	41
2	334	27.583093064499	42
2	334	27.583093064499	43
2	334	27.583093064499	44
2	363	28.955441118873	45
2	363	28.955441118873	46
2	363	28.955441118873	47
2	382	30.35604816169	48
2	382	30.35604816169	49
2	382	30.35604816169	50
2	400	31.74569262207	51
2	400	31.74569262207	52
2	400	31.74569262207	53
2	415	33.063003648685	54
2	415	33.063003648685	55
2	415	33.063003648685	56
2	450	35.767756699593	57
2	450	35.767756699593	58
2	450	35.767756699593	59
2	461	37.261506558586	60
2	461	37.261506558586	61
2	461	37.261506558586	62
2	484	38.937215179653	63
2	484	38.937215179653	64
2	484	38.937215179653	65
2	498	40.118654156599	66
2	498	40.118654156599	67
2	498	40.118654156599	68
2	530	42.114081554453	69
2	530	42.114081554453	70
2	530	42.114081554453	71
2	548	43.751870844103	72
2	548	43.751870844103	73
2	548	43.751870844103	74
2	573	44.855241720065	75
2	573	44.855241720065	76
2	573	44.855241720065	77
2	600	49.271436761647	78
2	600	49.271436761647	79
2	600	49.271436761647	80
2	629	51.196508415504	81
2	629	51.196508415504	82
2	629	51.196508415504	83
2	657	53.578191392525	84
2	657	53.578191392525	85
2	657	53.578191392525	86
2	679	54.717961523125	87
2	679	54.717961523125	88
2	679	54.717961523125	89
2	704	56.61508718865	90
2	704	56.61508718865	91
2	704	56.61508718865	92
2	716	58.263671770712	93
2	716	58.263671770712	94
2	716	58.263671770712	95
2	747	59.744899160533	96
2	747	59.744899160533	97
2	747	59.744899160533	98
2	772	61.201649542857	99
2	772	61.201649542857	100
2	772	61.201649542857	101
2	794	62.983917451194	102
2	794	62.983917451194	103
2	794	62.983917451194	104
2	816	64.653345949146	105
2	816	64.653345949146	106
2	816	64.653345949146	107
2	848	66.156570639215	108
2	848	66.156570639215	109
2	848	66.156570639215	110
2	873	67.283202561915	111
2	873	67.283202561915	112
2	873	67.283202561915	113
2	887	69.105496690337	114
2	887	69.105496690337	115
2	887	69.105496690337	116
2	912	70.845331936407	117
2	912	70.845331936407	118
2	912	70.845331936407	119
2	927	72.129053555197	120
2	927	72.129053555197	121
2	927	72.129053555197	122
2	962	73.939817188011	123
2	962	73.939817188011	124
2	962	73.939817188011	125
2	984	75.745350150923	126
2	984	75.745350150923	127
2	984	75.745350150923	128
2	1009	77.646589694634	129
2	1009	77.646589694634	130
2	1009	77.646589694634	131
2	1031	78.905009128124	132
2	1031	78.905009128124	133
2	1031	78.905009128124	134
2	1056	80.150896395049	135
2	1056	80.150896395049	136
2	1056	80.150896395049	137
2	1074	81.245105967521	138
2	1074	81.245105967521	139
2	1074	81.245105967521	140
2	1099	82.985478703043	141
2	1099	82.985478703043	142
2	1099	82.985478703043	143
2	1124	84.413965180209	144
2	1124	84.413965180209	145
2	1124	84.413965180209	146
2	1142	86.373775909514	147
2	1142	86.373775909514	148
2	1142	86.373775909514	149
2	1163	89.364935116101	150
2	1163	89.364935116101	151
2	1163	89.364935116101	152
2	1184	90.527168968881	153
2	1184	90.527168968881	154
2	1184	90.527168968881	155
2	1209	91.613660213979	156
2	1209	91.613660213979	157
2	1209	91.613660213979	158
2	1238	94.818330707495	159
2	1238	94.818330707495	160
2	1238	94.818330707495	161
2	1263	97.546245750145	162
2	1263	97.546245750145	163
2	1263	97.546245750145	164
2	1281	98.81313516362	165
2	1281	98.81313516362	166
2	1281	98.81313516362	167
2	1332	102.996341970971	168
2	1332	102.996341970971	169
2	1332	102.996341970971	170
2	1364	104.696628526824	171
2	1364	104.696628526824	172
2	1364	104.696628526824	173
2	1384	106.036487584385	174
2	1384	106.036487584385	175
2	1384	106.036487584385	176
2	1413	108.931010171347	177
2	1413	108.931010171347	178
2	1413	108.931010171347	179
2	1435	110.308202224995	180
2	1435	110.308202224995	181
2	1435	110.308202224995	182
2	1459	111.938268491139	183
2	1459	111.938268491139	184
2	1459	111.938268491139	185
2	1473	113.835052830425	186
2	1473	113.835052830425	187
2	1473	113.835052830425	188
2	1490	115.784630846912	189
2	1490	115.784630846912	190
2	1490	115.784630846912	191
2	1519	116.917510674783	192
2	1519	116.917510674783	193
2	1519	116.917510674783	194
2	1540	118.076274201223	195
2	1540	118.076274201223	196
2	1540	118.076274201223	197
2	1560	119.322388181585	198
2	1560	119.322388181585	199
2	1560	119.322388181585	200
2	1588	120.542683453364	201
2	1588	120.542683453364	202
2	1588	120.542683453364	203
2	1606	121.566133922688	204
2	1606	121.566133922688	205
2	1606	121.566133922688	206
2	1645	124.899643118107	207
2	1645	124.899643118107	208
2	1645	124.899643118107	209
2	1678	126.174389796522	210
2	1678	126.174389796522	211
2	1678	126.174389796522	212
2	1703	127.41697670475	213
2	1703	127.41697670475	214
2	1703	127.41697670475	215
2	1717	128.74480461697	216
2	1717	128.74480461697	217
2	1717	128.74480461697	218
2	1757	132.516673913783	219
2	1757	132.516673913783	220
2	1757	132.516673913783	221
2	1783	134.071686798723	222
2	1783	134.071686798723	223
2	1783	134.071686798723	224
2	1805	135.855899152401	225
2	1805	135.855899152401	226
2	1805	135.855899152401	227
2	1823	137.281016969836	228
2	1823	137.281016969836	229
2	1823	137.281016969836	230
2	1845	139.110654992521	231
2	1845	139.110654992521	232
2	1845	139.110654992521	233
2	1870	140.217585356073	234
2	1870	140.217585356073	235
2	1870	140.217585356073	236
2	1895	141.545318287072	237
2	1895	141.545318287072	238
2	1895	141.545318287072	239
2	1912	143.129488350991	240
2	1912	143.129488350991	241
2	1912	143.129488350991	242
2	1935	145.073996924741	243
2	1935	145.073996924741	244
2	1935	145.073996924741	245
2	1976	150.662532945895	246
2	1976	150.662532945895	247
2	1976	150.662532945895	248
2	1988	152.273259715891	249
2	1988	152.273259715891	250
2	1988	152.273259715891	251
2	2020	154.29541394743	252
2	2020	154.29541394743	253
2	2020	154.29541394743	254
2	2035	155.924964624406	255
2	2035	155.924964624406	256
2	2035	155.924964624406	257
2	2056	157.294885970205	258
2	2056	157.294885970205	259
2	2056	157.294885970205	260
2	2082	158.689666639638	261
2	2082	158.689666639638	262
2	2082	158.689666639638	263
2	2103	160.127962532161	264
2	2103	160.127962532161	265
2	2103	160.127962532161	266
2	2129	162.974559285893	267
2	2129	162.974559285893	268
2	2129	162.974559285893	269
2	2153	164.840135403468	270
2	2153	164.840135403468	271
2	2153	164.840135403468	272
2	2182	166.643808289207	273
2	2182	166.643808289207	274
2	2182	166.643808289207	275
2	2196	168.388622176073	276
2	2196	168.388622176073	277
2	2196	168.388622176073	278
2	2220	169.773230087524	279
2	2220	169.773230087524	280
2	2220	169.773230087524	281
2	2246	171.254285899849	282
2	2246	171.254285899849	283
2	2246	171.254285899849	284
2	2271	172.599962527804	285
2	2271	172.599962527804	286
2	2271	172.599962527804	287
2	2293	174.412068688927	288
2	2293	174.412068688927	289
2	2293	174.412068688927	290
2	2318	175.496408199559	291
2	2318	175.496408199559	292
2	2318	175.496408199559	293
2	2340	177.068820841435	294
2	2340	177.068820841435	295
2	2340	177.068820841435	296
2	2361	178.069313359078	297
2	2361	178.069313359078	298
2	2361	178.069313359078	299
2	2401	181.785540737856	300
2	2401	181.785540737856	301
2	2401	181.785540737856	302
2	2418	183.387924736647	303
2	2418	183.387924736647	304
2	2418	183.387924736647	305
2	2437	185.374083615173	306
2	2437	185.374083615173	307
2	2437	185.374083615173	308
2	2487	187.614668144208	309
2	2487	187.614668144208	310
2	2487	187.614668144208	311
2	2510	190.313928485689	312
2	2510	190.313928485689	313
2	2510	190.313928485689	314
2	2536	191.548115052511	315
2	2536	191.548115052511	316
2	2536	191.548115052511	317
2	2555	192.677543581655	318
2	2555	192.677543581655	319
2	2555	192.677543581655	320
2	2577	194.539300715309	321
2	2577	194.539300715309	322
2	2577	194.539300715309	323
2	2598	196.03333578618	324
2	2598	196.03333578618	325
2	2598	196.03333578618	326
2	2616	197.691125024617	327
2	2616	197.691125024617	328
2	2616	197.691125024617	329
2	2646	199.141961095707	330
2	2646	199.141961095707	331
2	2646	199.141961095707	332
2	2661	201.079259835381	333
2	2661	201.079259835381	334
2	2661	201.079259835381	335
2	2691	202.157950513721	336
2	2691	202.157950513721	337
2	2691	202.157950513721	338
2	2703	203.277680869785	339
2	2703	203.277680869785	340
2	2703	203.277680869785	341
2	2728	204.30404964444	342
2	2728	204.30404964444	343
2	2728	204.30404964444	344
2	2746	206.079041438908	345
2	2746	206.079041438908	346
2	2746	206.079041438908	347
2	2775	207.72074675107	348
2	2775	207.72074675107	349
2	2775	207.72074675107	350
2	2797	209.546845171506	351
2	2797	209.546845171506	352
2	2797	209.546845171506	353
2	2842	214.891741863549	354
2	2842	214.891741863549	355
2	2842	214.891741863549	356
2	2856	216.686187828877	357
2	2856	216.686187828877	358
2	2856	216.686187828877	359
2	2896	220.029662054478	360
2	2896	220.029662054478	361
2	2896	220.029662054478	362
2	2911	221.789889448694	363
2	2911	221.789889448694	364
2	2911	221.789889448694	365
2	2935	224.736208476476	366
2	2935	224.736208476476	367
2	2935	224.736208476476	368
2	2963	225.719944939923	369
2	2963	225.719944939923	370
2	2963	225.719944939923	371
2	3000	228.344946678597	372
2	3000	228.344946678597	373
2	3000	228.344946678597	374
2	3019	230.301892158696	375
2	3019	230.301892158696	376
2	3019	230.301892158696	377
2	3044	231.872166407614	378
2	3044	231.872166407614	379
2	3044	231.872166407614	380
2	3072	233.809422416853	381
2	3072	233.809422416853	382
2	3072	233.809422416853	383
2	3083	235.255191966267	384
2	3083	235.255191966267	385
2	3083	235.255191966267	386
2	3115	236.690597480728	387
2	3115	236.690597480728	388
2	3115	236.690597480728	389
2	3137	238.057065833275	390
2	3137	238.057065833275	391
2	3137	238.057065833275	392
2	3152	239.426424690227	393
2	3152	239.426424690227	394
2	3152	239.426424690227	395
3	9	0.223088800394	0
3	9	0.223088800394	1
3	30	2.113453601012	2
3	30	2.113453601012	3
3	46	4.093670008527	4
3	46	4.093670008527	5
3	71	5.129910337656	6
3	71	5.129910337656	7
3	93	6.288687570491	8
3	93	6.288687570491	9
3	119	7.806025267275	10
3	119	7.806025267275	11
3	137	9.707134419648	12
3	137	9.707134419648	13
3	143	10.807790787793	14
3	143	10.807790787793	15
3	168	16.079924860113	16
3	168	16.079924860113	17
3	192	17.761868494191	18
3	192	17.761868494191	19
3	214	18.921703400222	20
3	214	18.921703400222	21
3	255	22.703147695144	22
3	255	22.703147695144	23
3	280	23.724044474675	24
3	280	23.724044474675	25
3	302	25.656115555681	26
3	302	25.656115555681	27
3	323	27.549635661345	28
3	323	27.549635661345	29
3	348	28.912158244867	30
3	348	28.912158244867	31
3	370	30.318127964495	32
3	370	30.318127964495	33
3	411	33.058889819617	34
3	411	33.058889819617	35
3	435	35.699606921732	36
3	435	35.699606921732	37
3	485	38.938994259287	38
3	485	38.938994259287	39
3	509	40.143249135218	40
3	509	40.143249135218	41
3	519	42.070484980008	42
3	519	42.070484980008	43
3	559	44.774275131405	44
3	559	44.774275131405	45
3	583	46.034406383484	46
3	583	46.034406383484	47
3	605	49.290042030623	48
3	605	49.290042030623	49
3	618	51.116671133995	50
3	618	51.116671133995	51
3	646	53.538456831959	52
3	646	53.538456831959	53
3	671	54.697869738094	54
3	671	54.697869738094	55
3	698	56.595579661804	56
3	698	56.595579661804	57
3	720	58.267059113442	58
3	720	58.267059113442	59
3	737	59.720436205425	60
3	737	59.720436205425	61
3	761	61.171367346171	62
3	761	61.171367346171	63
3	790	62.97228583718	64
3	790	62.97228583718	65
3	823	64.66858852629	66
3	823	64.66858852629	67
3	833	66.117091493013	68
3	833	66.117091493013	69
3	867	67.256915450922	70
3	867	67.256915450922	71
3	897	70.802010908937	72
3	897	70.802010908937	73
3	928	72.133193423664	74
3	928	72.133193423664	75
3	947	73.876499615399	76
3	947	73.876499615399	77
3	969	75.693104056313	78
3	969	75.693104056313	79
3	994	77.52203927432	80
3	994	77.52203927432	81
3	1021	78.867842338592	82
3	1021	78.867842338592	83
3	1041	80.103362973389	84
3	1041	80.103362973389	85
3	1067	81.221852301462	86
3	1067	81.221852301462	87
3	1088	82.940696735091	88
3	1088	82.940696735091	89
3	1109	84.325627696125	90
3	1109	84.325627696125	91
3	1131	86.307131110713	92
3	1131	86.307131110713	93
3	1155	89.337699641105	94
3	1155	89.337699641105	95
3	1173	90.483130432667	96
3	1173	90.483130432667	97
3	1194	91.554138081628	98
3	1194	91.554138081628	99
3	1227	93.45188479291	100
3	1227	93.45188479291	101
3	1255	97.527117008428	102
3	1255	97.527117008428	103
3	1289	98.844205814036	104
3	1289	98.844205814036	105
3	1295	99.926745558507	106
3	1295	99.926745558507	107
3	1313	101.475281585062	108
3	1313	101.475281585062	109
3	1336	103.005522483814	110
3	1336	103.005522483814	111
3	1352	104.661647242466	112
3	1352	104.661647242466	113
3	1377	105.994509924706	114
3	1377	105.994509924706	115
3	1402	108.859097946913	116
3	1402	108.859097946913	117
3	1428	110.293653083329	118
3	1428	110.293653083329	119
3	1453	111.914451680683	120
3	1453	111.914451680683	121
3	1483	115.771486902553	122
3	1483	115.771486902553	123
3	1508	116.879268624095	124
3	1508	116.879268624095	125
3	1534	118.065929076537	126
3	1534	118.065929076537	127
3	1556	119.317402506918	128
3	1556	119.317402506918	129
3	1577	120.518901579583	130
3	1577	120.518901579583	131
3	1618	121.62244859072	132
3	1618	121.62244859072	133
3	1625	123.362444872135	134
3	1625	123.362444872135	135
3	1639	124.884268237013	136
3	1639	124.884268237013	137
3	1672	126.152602628265	138
3	1672	126.152602628265	139
3	1688	127.338589472533	140
3	1688	127.338589472533	141
3	1710	128.723176005176	142
3	1710	128.723176005176	143
3	1732	130.688242267266	144
3	1732	130.688242267266	145
3	1746	132.448692517401	146
3	1746	132.448692517401	147
3	1777	134.050394353267	148
3	1777	134.050394353267	149
3	1790	135.785729590894	150
3	1790	135.785729590894	151
3	1812	137.250026964178	152
3	1812	137.250026964178	153
3	1837	139.079905995778	154
3	1837	139.079905995778	155
3	1860	140.177321801187	156
3	1860	140.177321801187	157
3	1881	141.483107864598	158
3	1881	141.483107864598	159
3	1905	143.116229544328	160
3	1905	143.116229544328	161
3	1942	145.087923209924	162
3	1942	145.087923209924	163
3	1955	148.677878414593	164
3	1955	148.677878414593	165
3	1970	150.642555304727	166
3	1970	150.642555304727	167
3	1984	152.267602784834	168
3	1984	152.267602784834	169
3	2005	154.25440622736	170
3	2005	154.25440622736	171
3	2027	155.87166564654	172
3	2027	155.87166564654	173
3	2049	157.264692268847	174
3	2049	157.264692268847	175
3	2071	158.624128432537	176
3	2071	158.624128432537	177
3	2096	160.108881699269	178
3	2096	160.108881699269	179
3	2114	161.397772103124	180
3	2114	161.397772103124	181
3	2136	162.992726381644	182
3	2136	162.992726381644	183
3	2142	164.805014616567	184
3	2142	164.805014616567	185
3	2167	166.540187596446	186
3	2167	166.540187596446	187
3	2207	168.42859008544	188
3	2207	168.42859008544	189
3	2213	169.756043843286	190
3	2213	169.756043843286	191
3	2235	171.188602098859	192
3	2235	171.188602098859	193
3	2261	172.58007382075	194
3	2261	172.58007382075	195
3	2285	174.396937128434	196
3	2285	174.396937128434	197
3	2307	175.430491989016	198
3	2307	175.430491989016	199
3	2329	177.031170023404	200
3	2329	177.031170023404	201
3	2354	178.057167468932	202
3	2354	178.057167468932	203
3	2376	179.836844575678	204
3	2376	179.836844575678	205
3	2386	181.738401923058	206
3	2386	181.738401923058	207
3	2411	183.365185276108	208
3	2411	183.365185276108	209
3	2445	185.387295880572	210
3	2445	185.387295880572	211
3	2466	186.592381856659	212
3	2466	186.592381856659	213
3	2472	187.570963055523	214
3	2472	187.570963055523	215
3	2505	190.305960328774	216
3	2505	190.305960328774	217
3	2530	191.528398024661	218
3	2530	191.528398024661	219
3	2563	192.707826307976	220
3	2563	192.707826307976	221
3	2570	194.52878382165	222
3	2570	194.52878382165	223
3	2588	196.00939064455	224
3	2588	196.00939064455	225
3	2617	197.693032710443	226
3	2617	197.693032710443	227
3	2642	199.13283783635	228
3	2642	199.13283783635	229
3	2659	201.069623906139	230
3	2659	201.069623906139	231
3	2680	202.13033087031	232
3	2680	202.13033087031	233
3	2702	203.268472658172	234
3	2702	203.268472658172	235
3	2729	204.309662219706	236
3	2729	204.309662219706	237
3	2738	206.062637838666	238
3	2738	206.062637838666	239
3	2760	207.664549984037	240
3	2760	207.664549984037	241
3	2782	209.508571165066	242
3	2782	209.508571165066	243
3	2807	211.480266201496	244
3	2807	211.480266201496	245
3	2817	213.090787257221	246
3	2817	213.090787257221	247
3	2831	214.836912329988	248
3	2831	214.836912329988	249
3	2865	216.709453883035	250
3	2865	216.709453883035	251
3	2874	218.196793378599	252
3	2874	218.196793378599	253
3	2885	219.98497954059	254
3	2885	219.98497954059	255
3	2916	221.799872541793	256
3	2916	221.799872541793	257
3	2950	224.783192819952	258
3	2950	224.783192819952	259
3	2956	225.705875307609	260
3	2956	225.705875307609	261
3	2978	227.097150448525	262
3	2978	227.097150448525	263
3	2993	228.324161404004	264
3	2993	228.324161404004	265
3	3015	230.29237236148	266
3	3015	230.29237236148	267
3	3033	231.846623210571	268
3	3033	231.846623210571	269
3	3057	233.752378912835	270
3	3057	233.752378912835	271
3	3095	235.286911049154	272
3	3095	235.286911049154	273
3	3104	236.663364051037	274
3	3104	236.663364051037	275
3	3126	237.9959857946	276
3	3126	237.9959857946	277
3	3164	239.487119713863	278
3	3164	239.487119713863	279
4	10	0.227595799025	0
4	10	0.227595799025	1
4	10	0.227595799025	2
4	49	4.104449068138	3
4	49	4.104449068138	4
4	49	4.104449068138	5
4	74	5.15006068751	6
4	74	5.15006068751	7
4	74	5.15006068751	8
4	97	6.301603261451	9
4	97	6.301603261451	10
4	97	6.301603261451	11
4	121	7.815926602494	12
4	121	7.815926602494	13
4	121	7.815926602494	14
4	160	14.16930252883	15
4	160	14.16930252883	16
4	160	14.16930252883	17
4	175	16.106462423574	18
4	175	16.106462423574	19
4	175	16.106462423574	20
4	195	17.793566279452	21
4	195	17.793566279452	22
4	195	17.793566279452	23
4	217	18.945466635122	24
4	217	18.945466635122	25
4	217	18.945466635122	26
4	240	20.824301002597	27
4	240	20.824301002597	28
4	240	20.824301002597	29
4	259	22.713316284931	30
4	259	22.713316284931	31
4	259	22.713316284931	32
4	287	23.738416285552	33
4	287	23.738416285552	34
4	287	23.738416285552	35
4	305	25.669389934542	36
4	305	25.669389934542	37
4	305	25.669389934542	38
4	327	27.565123808703	39
4	327	27.565123808703	40
4	327	27.565123808703	41
4	351	28.924663147287	42
4	351	28.924663147287	43
4	351	28.924663147287	44
4	374	30.337590628786	45
4	374	30.337590628786	46
4	374	30.337590628786	47
4	399	31.744873932351	48
4	399	31.744873932351	49
4	399	31.744873932351	50
4	416	33.066433892876	51
4	416	33.066433892876	52
4	416	33.066433892876	53
4	438	35.735534307805	54
4	438	35.735534307805	55
4	438	35.735534307805	56
4	466	37.273005666554	57
4	466	37.273005666554	58
4	466	37.273005666554	59
4	480	38.918884562786	60
4	480	38.918884562786	61
4	480	38.918884562786	62
4	499	40.124732778571	63
4	499	40.124732778571	64
4	499	40.124732778571	65
4	522	42.086036548143	66
4	522	42.086036548143	67
4	522	42.086036548143	68
4	544	43.724797699915	69
4	544	43.724797699915	70
4	544	43.724797699915	71
4	563	44.779640378734	72
4	563	44.779640378734	73
4	563	44.779640378734	74
4	586	46.050849266441	75
4	586	46.050849266441	76
4	586	46.050849266441	77
4	601	49.280343419794	78
4	601	49.280343419794	79
4	601	49.280343419794	80
4	621	51.133965265215	81
4	621	51.133965265215	82
4	621	51.133965265215	83
4	653	53.549113288621	84
4	653	53.549113288621	85
4	653	53.549113288621	86
4	678	54.711272380309	87
4	678	54.711272380309	88
4	678	54.711272380309	89
4	693	56.583981177896	90
4	693	56.583981177896	91
4	693	56.583981177896	92
4	715	58.256616663251	93
4	715	58.256616663251	94
4	715	58.256616663251	95
4	743	59.733301114549	96
4	743	59.733301114549	97
4	743	59.733301114549	98
4	764	61.185144634252	99
4	764	61.185144634252	100
4	764	61.185144634252	101
4	791	62.979557301039	102
4	791	62.979557301039	103
4	791	62.979557301039	104
4	815	64.650094557687	105
4	815	64.650094557687	106
4	815	64.650094557687	107
4	836	66.132880292863	108
4	836	66.132880292863	109
4	836	66.132880292863	110
4	862	67.240297260109	111
4	862	67.240297260109	112
4	862	67.240297260109	113
4	901	70.812516919598	114
4	901	70.812516919598	115
4	901	70.812516919598	116
4	926	72.128623097529	117
4	926	72.128623097529	118
4	926	72.128623097529	119
4	951	73.898690356543	120
4	951	73.898690356543	121
4	951	73.898690356543	122
4	972	75.704315340291	123
4	972	75.704315340291	124
4	972	75.704315340291	125
4	997	77.599768190287	126
4	997	77.599768190287	127
4	997	77.599768190287	128
4	1020	78.861751955996	129
4	1020	78.861751955996	130
4	1020	78.861751955996	131
4	1044	80.119753998754	132
4	1044	80.119753998754	133
4	1044	80.119753998754	134
4	1073	81.242633551267	135
4	1073	81.242633551267	136
4	1073	81.242633551267	137
4	1091	82.952160577215	138
4	1091	82.952160577215	139
4	1091	82.952160577215	140
4	1116	84.344697326676	141
4	1116	84.344697326676	142
4	1116	84.344697326676	143
4	1134	86.323554968579	144
4	1134	86.323554968579	145
4	1134	86.323554968579	146
4	1162	89.360713893526	147
4	1162	89.360713893526	148
4	1162	89.360713893526	149
4	1176	90.494913021658	150
4	1176	90.494913021658	151
4	1176	90.494913021658	152
4	1197	91.570711258123	153
4	1197	91.570711258123	154
4	1197	91.570711258123	155
4	1223	93.410851313175	156
4	1223	93.410851313175	157
4	1223	93.410851313175	158
4	1237	94.816946766756	159
4	1237	94.816946766756	160
4	1237	94.816946766756	161
4	1259	97.538696557437	162
4	1259	97.538696557437	163
4	1259	97.538696557437	164
4	1282	98.82306289406	165
4	1282	98.82306289406	166
4	1282	98.82306289406	167
4	1299	99.944219404616	168
4	1299	99.944219404616	169
4	1299	99.944219404616	170
4	1316	101.504425937247	171
4	1316	101.504425937247	172
4	1316	101.504425937247	173
4	1331	102.994113989666	174
4	1331	102.994113989666	175
4	1331	102.994113989666	176
4	1359	104.684721018703	177
4	1359	104.684721018703	178
4	1359	104.684721018703	179
4	1385	106.041959599783	180
4	1385	106.041959599783	181
4	1385	106.041959599783	182
4	1405	108.869338286304	183
4	1405	108.869338286304	184
4	1405	108.869338286304	185
4	1432	110.303353423364	186
4	1432	110.303353423364	187
4	1432	110.303353423364	188
4	1491	115.78593573429	189
4	1491	115.78593573429	190
4	1491	115.78593573429	191
4	1511	116.890777808317	192
4	1511	116.890777808317	193
4	1511	116.890777808317	194
4	1544	118.08679116737	195
4	1544	118.08679116737	196
4	1544	118.08679116737	197
4	1561	119.327104053442	198
4	1561	119.327104053442	199
4	1561	119.327104053442	200
4	1580	120.529931421767	201
4	1580	120.529931421767	202
4	1580	120.529931421767	203
4	1614	121.593646094062	204
4	1614	121.593646094062	205
4	1614	121.593646094062	206
4	1631	123.379921146996	207
4	1631	123.379921146996	208
4	1631	123.379921146996	209
4	1646	124.906249538052	210
4	1646	124.906249538052	211
4	1646	124.906249538052	212
4	1667	126.130268055645	213
4	1667	126.130268055645	214
4	1667	126.130268055645	215
4	1695	127.355285582047	216
4	1695	127.355285582047	217
4	1695	127.355285582047	218
4	1722	128.764458580273	219
4	1722	128.764458580273	220
4	1722	128.764458580273	221
4	1739	130.73367182555	222
4	1739	130.73367182555	223
4	1739	130.73367182555	224
4	1749	132.466220753288	225
4	1749	132.466220753288	226
4	1749	132.466220753288	227
4	1772	134.034601567855	228
4	1772	134.034601567855	229
4	1772	134.034601567855	230
4	1797	135.820048924294	231
4	1797	135.820048924294	232
4	1797	135.820048924294	233
4	1819	137.270993199208	234
4	1819	137.270993199208	235
4	1819	137.270993199208	236
4	1844	139.104990971956	237
4	1844	139.104990971956	238
4	1844	139.104990971956	239
4	1864	140.183926429137	240
4	1864	140.183926429137	241
4	1864	140.183926429137	242
4	1887	141.507990845692	243
4	1887	141.507990845692	244
4	1887	141.507990845692	245
4	1913	143.134325998337	246
4	1913	143.134325998337	247
4	1913	143.134325998337	248
4	1934	145.064451699969	249
4	1934	145.064451699969	250
4	1934	145.064451699969	251
4	1958	148.690869999387	252
4	1958	148.690869999387	253
4	1958	148.690869999387	254
4	1969	150.633252014416	255
4	1969	150.633252014416	256
4	1969	150.633252014416	257
4	1995	152.293769715857	258
4	1995	152.293769715857	259
4	1995	152.293769715857	260
4	2008	154.267417892328	261
4	2008	154.267417892328	262
4	2008	154.267417892328	263
4	2034	155.915895677246	264
4	2034	155.915895677246	265
4	2034	155.915895677246	266
4	2057	157.298388772188	267
4	2057	157.298388772188	268
4	2057	157.298388772188	269
4	2074	158.640862533692	270
4	2074	158.640862533692	271
4	2074	158.640862533692	272
4	2107	160.138292349358	273
4	2107	160.138292349358	274
4	2107	160.138292349358	275
4	2124	162.951693046433	276
4	2124	162.951693046433	277
4	2124	162.951693046433	278
4	2145	164.817064366255	279
4	2145	164.817064366255	280
4	2145	164.817064366255	281
4	2174	166.563141874405	282
4	2174	166.563141874405	283
4	2174	166.563141874405	284
4	2200	168.398935735963	285
4	2200	168.398935735963	286
4	2200	168.398935735963	287
4	2221	169.776294129295	288
4	2221	169.776294129295	289
4	2221	169.776294129295	290
4	2238	171.199310093748	291
4	2238	171.199310093748	292
4	2238	171.199310093748	293
4	2265	172.585921124054	294
4	2265	172.585921124054	295
4	2265	172.585921124054	296
4	2292	174.408082288709	297
4	2292	174.408082288709	298
4	2292	174.408082288709	299
4	2310	175.445487471283	300
4	2310	175.445487471283	301
4	2310	175.445487471283	302
4	2332	177.042623912464	303
4	2332	177.042623912464	304
4	2332	177.042623912464	305
4	2362	178.069808170213	306
4	2362	178.069808170213	307
4	2362	178.069808170213	308
4	2379	179.860529378602	309
4	2379	179.860529378602	310
4	2379	179.860529378602	311
4	2389	181.752599189114	312
4	2389	181.752599189114	313
4	2389	181.752599189114	314
4	2423	183.413642236458	315
4	2423	183.413642236458	316
4	2423	183.413642236458	317
4	2438	185.377191990997	318
4	2438	185.377191990997	319
4	2438	185.377191990997	320
4	2462	186.580217180759	321
4	2462	186.580217180759	322
4	2462	186.580217180759	323
4	2475	187.584871202781	324
4	2475	187.584871202781	325
4	2475	187.584871202781	326
4	2509	190.311198978214	327
4	2509	190.311198978214	328
4	2509	190.311198978214	329
4	2537	191.548295833303	330
4	2537	191.548295833303	331
4	2537	191.548295833303	332
4	2559	192.691594564893	333
4	2559	192.691594564893	334
4	2559	192.691594564893	335
4	2574	194.536531891701	336
4	2574	194.536531891701	337
4	2574	194.536531891701	338
4	2592	196.018626034911	339
4	2592	196.018626034911	340
4	2592	196.018626034911	341
4	2612	197.680585409839	342
4	2612	197.680585409839	343
4	2612	197.680585409839	344
4	2637	199.106214787882	345
4	2637	199.106214787882	346
4	2637	199.106214787882	347
4	2660	201.073737236767	348
4	2660	201.073737236767	349
4	2660	201.073737236767	350
4	2684	202.147651776305	351
4	2684	202.147651776305	352
4	2684	202.147651776305	353
4	2709	203.308288120306	354
4	2709	203.308288120306	355
4	2709	203.308288120306	356
4	2724	204.288975994854	357
4	2724	204.288975994854	358
4	2724	204.288975994854	359
4	2742	206.074258826121	360
4	2742	206.074258826121	361
4	2742	206.074258826121	362
4	2763	207.676755771763	363
4	2763	207.676755771763	364
4	2763	207.676755771763	365
4	2785	209.519030748938	366
4	2785	209.519030748938	367
4	2785	209.519030748938	368
4	2810	211.515553046523	369
4	2810	211.515553046523	370
4	2810	211.515553046523	371
4	2820	213.109730378374	372
4	2820	213.109730378374	373
4	2820	213.109730378374	374
4	2832	214.846476622343	375
4	2832	214.846476622343	376
4	2832	214.846476622343	377
4	2860	216.697614771372	378
4	2860	216.697614771372	379
4	2860	216.697614771372	380
4	2877	218.219099693697	381
4	2877	218.219099693697	382
4	2877	218.219099693697	383
4	2891	220.007680046765	384
4	2891	220.007680046765	385
4	2891	220.007680046765	386
4	2910	221.783895180819	387
4	2910	221.783895180819	388
4	2910	221.783895180819	389
4	2936	224.746036779016	390
4	2936	224.746036779016	391
4	2936	224.746036779016	392
4	2964	225.72169015885	393
4	2964	225.72169015885	394
4	2964	225.72169015885	395
4	2982	227.109464387431	396
4	2982	227.109464387431	397
4	2982	227.109464387431	398
4	2999	228.344183307886	399
4	2999	228.344183307886	400
4	2999	228.344183307886	401
4	3022	230.307762954923	402
4	3022	230.307762954923	403
4	3022	230.307762954923	404
4	3037	231.856034648067	405
4	3037	231.856034648067	406
4	3037	231.856034648067	407
4	3064	233.783794880555	408
4	3064	233.783794880555	409
4	3064	233.783794880555	410
4	3087	235.267029804541	411
4	3087	235.267029804541	412
4	3087	235.267029804541	413
4	3108	236.677848049144	414
4	3108	236.677848049144	415
4	3108	236.677848049144	416
4	3129	238.022734496684	417
4	3129	238.022734496684	418
4	3129	238.022734496684	419
4	3160	239.458448024136	420
4	3160	239.458448024136	421
4	3160	239.458448024136	422
5	14	0.230608645336	0
5	14	0.230608645336	1
5	40	2.147696785028	2
5	40	2.147696785028	3
5	61	4.162817338375	4
5	61	4.162817338375	5
5	186	16.140263658735	6
5	186	16.140263658735	7
5	270	22.744035903534	8
5	270	22.744035903534	9
5	317	25.720313100288	10
5	317	25.720313100288	11
5	339	27.594046182308	12
5	339	27.594046182308	13
5	389	30.371290348626	14
5	389	30.371290348626	15
5	503	40.128831048633	16
5	503	40.128831048633	17
5	534	42.125677323259	18
5	534	42.125677323259	19
5	552	43.78319096653	20
5	552	43.78319096653	21
5	577	44.866556673393	22
5	577	44.866556673393	23
5	633	51.223615486468	24
5	633	51.223615486468	25
5	665	53.61212091307	26
5	665	53.61212091307	27
5	726	58.280563977887	28
5	726	58.280563977887	29
5	752	59.76119935132	30
5	752	59.76119935132	31
5	776	61.214093458625	32
5	776	61.214093458625	33
5	802	62.997839311672	34
5	802	62.997839311672	35
5	852	66.166728473212	36
5	852	66.166728473212	37
5	877	67.296307324859	38
5	877	67.296307324859	39
5	891	69.122859749695	40
5	891	69.122859749695	41
5	916	70.867925923654	42
5	916	70.867925923654	43
5	938	72.144684336853	44
5	938	72.144684336853	45
5	988	75.772683848132	46
5	988	75.772683848132	47
5	1035	78.91565719969	48
5	1035	78.91565719969	49
5	1060	80.178386428548	50
5	1060	80.178386428548	51
5	1103	83.004631896302	52
5	1103	83.004631896302	53
5	1146	86.397969393187	54
5	1146	86.397969393187	55
5	1188	90.561454398652	56
5	1188	90.561454398652	57
5	1213	91.624515925954	58
5	1213	91.624515925954	59
5	1340	103.008352667215	60
5	1340	103.008352667215	61
5	1371	104.709848693727	62
5	1371	104.709848693727	63
5	1418	108.950735592742	64
5	1418	108.950735592742	65
5	1443	110.32321146231	66
5	1443	110.32321146231	67
5	1463	111.949044104817	68
5	1463	111.949044104817	69
5	1477	113.856604344714	70
5	1477	113.856604344714	71
5	1498	115.800397057373	72
5	1498	115.800397057373	73
5	1524	116.944155341582	74
5	1524	116.944155341582	75
5	1596	120.563800320224	76
5	1596	120.563800320224	77
5	1650	124.910440595735	78
5	1650	124.910440595735	79
5	1682	126.218380195179	80
5	1682	126.218380195179	81
5	1831	137.315825380369	82
5	1831	137.315825380369	83
5	1874	140.230431811932	84
5	1874	140.230431811932	85
5	1899	141.557319700645	86
5	1899	141.557319700645	87
5	1917	143.13983483629	88
5	1917	143.13983483629	89
5	2086	158.70970952446	90
5	2086	158.70970952446	91
5	2157	164.854634339362	92
5	2157	164.854634339362	93
5	2186	166.673944451034	94
5	2186	166.673944451034	95
5	2204	168.409362893614	96
5	2204	168.409362893614	97
5	2250	171.264440047023	98
5	2250	171.264440047023	99
5	2279	172.652291180436	100
5	2279	172.652291180436	101
5	2348	177.097263402715	102
5	2348	177.097263402715	103
5	2405	181.797488945603	104
5	2405	181.797488945603	105
5	2446	185.388293218316	106
5	2446	185.388293218316	107
5	2491	187.625658399967	108
5	2491	187.625658399967	109
5	2523	190.378073886686	110
5	2523	190.378073886686	111
5	2602	196.054794753943	112
5	2602	196.054794753943	113
5	2627	197.721562613597	114
5	2627	197.721562613597	115
5	2674	201.114679506491	116
5	2674	201.114679506491	117
5	2801	209.563312863942	118
5	2801	209.563312863942	119
5	2846	214.915709812386	120
5	2846	214.915709812386	121
5	2940	224.752031565673	122
5	2940	224.752031565673	123
5	3051	231.885981082129	124
5	3051	231.885981082129	125
5	3088	235.274679985174	126
5	3088	235.274679985174	127
6	22	0.252709066794	0
6	22	0.252709066794	1
6	22	0.252709066794	2
6	64	4.183048854324	3
6	64	4.183048854324	4
6	64	4.183048854324	5
6	78	5.164766620481	6
6	78	5.164766620481	7
6	78	5.164766620481	8
6	104	6.328258315559	9
6	104	6.328258315559	10
6	104	6.328258315559	11
6	130	7.837109233156	12
6	130	7.837109233156	13
6	130	7.837109233156	14
6	182	16.125122848461	15
6	182	16.125122848461	16
6	182	16.125122848461	17
6	207	17.834790008444	18
6	207	17.834790008444	19
6	207	17.834790008444	20
6	229	18.997728490207	21
6	229	18.997728490207	22
6	229	18.997728490207	23
6	245	20.836913311367	24
6	245	20.836913311367	25
6	245	20.836913311367	26
6	271	22.747716709959	27
6	271	22.747716709959	28
6	271	22.747716709959	29
6	292	23.750412568181	30
6	292	23.750412568181	31
6	292	23.750412568181	32
6	335	27.588956478764	33
6	335	27.588956478764	34
6	335	27.588956478764	35
6	355	28.937631114434	36
6	355	28.937631114434	37
6	355	28.937631114434	38
6	381	30.351683092387	39
6	381	30.351683092387	40
6	381	30.351683092387	41
6	425	33.084339416725	42
6	425	33.084339416725	43
6	425	33.084339416725	44
6	442	35.747524593872	45
6	442	35.747524593872	46
6	442	35.747524593872	47
6	465	37.272816638651	48
6	465	37.272816638651	49
6	465	37.272816638651	50
6	510	40.150609648866	51
6	510	40.150609648866	52
6	510	40.150609648866	53
6	569	44.808360939286	54
6	569	44.808360939286	55
6	569	44.808360939286	56
6	609	49.291526424164	57
6	609	49.291526424164	58
6	609	49.291526424164	59
6	625	51.167914734851	60
6	625	51.167914734851	61
6	625	51.167914734851	62
6	661	53.601453519315	63
6	661	53.601453519315	64
6	661	53.601453519315	65
6	697	56.59461727772	66
6	697	56.59461727772	67
6	697	56.59461727772	68
6	727	58.28510685262	69
6	727	58.28510685262	70
6	727	58.28510685262	71
6	748	59.751785624879	72
6	748	59.751785624879	73
6	748	59.751785624879	74
6	777	61.218522342931	75
6	777	61.218522342931	76
6	777	61.218522342931	77
6	801	62.994037380735	78
6	801	62.994037380735	79
6	801	62.994037380735	80
6	826	64.68477644123	81
6	826	64.68477644123	82
6	826	64.68477644123	83
6	841	66.146273706987	84
6	841	66.146273706987	85
6	841	66.146273706987	86
6	866	67.250756973844	87
6	866	67.250756973844	88
6	866	67.250756973844	89
6	908	70.823166821929	90
6	908	70.823166821929	91
6	908	70.823166821929	92
6	937	72.143950817716	93
6	937	72.143950817716	94
6	937	72.143950817716	95
6	958	73.911203867308	96
6	958	73.911203867308	97
6	958	73.911203867308	98
6	980	75.720581073544	99
6	980	75.720581073544	100
6	980	75.720581073544	101
6	1001	77.620523958774	102
6	1001	77.620523958774	103
6	1001	77.620523958774	104
6	1027	78.890206083333	105
6	1027	78.890206083333	106
6	1027	78.890206083333	107
6	1049	80.135052397143	108
6	1049	80.135052397143	109
6	1049	80.135052397143	110
6	1078	81.254570554009	111
6	1078	81.254570554009	112
6	1078	81.254570554009	113
6	1120	84.376158317694	114
6	1120	84.376158317694	115
6	1120	84.376158317694	116
6	1201	91.592325613796	117
6	1201	91.592325613796	118
6	1201	91.592325613796	119
6	1245	94.83292702224	120
6	1245	94.83292702224	121
6	1245	94.83292702224	122
6	1270	97.575411797588	123
6	1270	97.575411797588	124
6	1270	97.575411797588	125
6	1306	99.955023434361	126
6	1306	99.955023434361	127
6	1306	99.955023434361	128
6	1345	103.019333085183	129
6	1345	103.019333085183	130
6	1345	103.019333085183	131
6	1363	104.696205419401	132
6	1363	104.696205419401	133
6	1363	104.696205419401	134
6	1392	106.052622777726	135
6	1392	106.052622777726	136
6	1392	106.052622777726	137
6	1417	108.950460573781	138
6	1417	108.950460573781	139
6	1417	108.950460573781	140
6	1442	110.31989907469	141
6	1442	110.31989907469	142
6	1442	110.31989907469	143
6	1501	115.812046639449	144
6	1501	115.812046639449	145
6	1501	115.812046639449	146
6	1515	116.906145814897	147
6	1515	116.906145814897	148
6	1515	116.906145814897	149
6	1548	118.103865468314	150
6	1548	118.103865468314	151
6	1548	118.103865468314	152
6	1570	119.34059894913	153
6	1570	119.34059894913	154
6	1570	119.34059894913	155
6	1589	120.543519095961	156
6	1589	120.543519095961	157
6	1589	120.543519095961	158
6	1610	121.579801306339	159
6	1610	121.579801306339	160
6	1610	121.579801306339	161
6	1651	124.913963815602	162
6	1651	124.913963815602	163
6	1651	124.913963815602	164
6	1671	126.14342027016	165
6	1671	126.14342027016	166
6	1671	126.14342027016	167
6	1699	127.392322838724	168
6	1699	127.392322838724	169
6	1699	127.392322838724	170
6	1721	128.75523031529	171
6	1721	128.75523031529	172
6	1721	128.75523031529	173
6	1761	132.538637341221	174
6	1761	132.538637341221	175
6	1761	132.538637341221	176
6	1776	134.046976200252	177
6	1776	134.046976200252	178
6	1776	134.046976200252	179
6	1801	135.836627404034	180
6	1801	135.836627404034	181
6	1801	135.836627404034	182
6	1827	137.301829528485	183
6	1827	137.301829528485	184
6	1827	137.301829528485	185
6	1852	139.120743713072	186
6	1852	139.120743713072	187
6	1852	139.120743713072	188
6	1891	141.523170202809	189
6	1891	141.523170202809	190
6	1891	141.523170202809	191
6	1918	143.14119261854	192
6	1918	143.14119261854	193
6	1918	143.14119261854	194
6	1945	145.098173309229	195
6	1945	145.098173309229	196
6	1945	145.098173309229	197
6	1994	152.286818242191	198
6	1994	152.286818242191	199
6	1994	152.286818242191	200
6	2012	154.277650798655	201
6	2012	154.277650798655	202
6	2012	154.277650798655	203
6	2042	155.940192386939	204
6	2042	155.940192386939	205
6	2042	155.940192386939	206
6	2064	157.32272044135	207
6	2064	157.32272044135	208
6	2064	157.32272044135	209
6	2087	158.711841811325	210
6	2087	158.711841811325	211
6	2087	158.711841811325	212
6	2128	162.964697251224	213
6	2128	162.964697251224	214
6	2128	162.964697251224	215
6	2160	164.869943820676	216
6	2160	164.869943820676	217
6	2160	164.869943820676	218
6	2178	166.583562025769	219
6	2178	166.583562025769	220
6	2178	166.583562025769	221
6	2228	169.795016221688	222
6	2228	169.795016221688	223
6	2228	169.795016221688	224
6	2253	171.278141001726	225
6	2253	171.278141001726	226
6	2253	171.278141001726	227
6	2272	172.600503240664	228
6	2272	172.600503240664	229
6	2272	172.600503240664	230
6	2297	174.421466622116	231
6	2297	174.421466622116	232
6	2297	174.421466622116	233
6	2322	175.522488871972	234
6	2322	175.522488871972	235
6	2322	175.522488871972	236
6	2344	177.084218405062	237
6	2344	177.084218405062	238
6	2344	177.084218405062	239
6	2369	178.096773269833	240
6	2369	178.096773269833	241
6	2369	178.096773269833	242
6	2393	181.767474170079	243
6	2393	181.767474170079	244
6	2393	181.767474170079	245
6	2422	183.406787092548	246
6	2422	183.406787092548	247
6	2422	183.406787092548	248
6	2451	185.411307064548	249
6	2451	185.411307064548	250
6	2451	185.411307064548	251
6	2479	187.59717101866	252
6	2479	187.59717101866	253
6	2479	187.59717101866	254
6	2516	190.322442162194	255
6	2516	190.322442162194	256
6	2516	190.322442162194	257
6	2544	191.566376411941	258
6	2544	191.566376411941	259
6	2544	191.566376411941	260
6	2618	197.697403162449	261
6	2618	197.697403162449	262
6	2618	197.697403162449	263
6	2641	199.125452185489	264
6	2641	199.125452185489	265
6	2641	199.125452185489	266
6	2670	201.092822565439	267
6	2670	201.092822565439	268
6	2670	201.092822565439	269
6	2713	203.33231628599	270
6	2713	203.33231628599	271
6	2713	203.33231628599	272
6	2753	206.15503212096	273
6	2753	206.15503212096	274
6	2753	206.15503212096	275
6	2767	207.692013771833	276
6	2767	207.692013771833	277
6	2767	207.692013771833	278
6	2789	209.531619284709	279
6	2789	209.531619284709	280
6	2789	209.531619284709	281
6	2838	214.863546149405	282
6	2838	214.863546149405	283
6	2838	214.863546149405	284
6	2861	216.701781167727	285
6	2861	216.701781167727	286
6	2861	216.701781167727	287
6	2895	220.020845088869	288
6	2895	220.020845088869	289
6	2895	220.020845088869	290
6	2915	221.794413078339	291
6	2915	221.794413078339	292
6	2915	221.794413078339	293
6	2944	224.756959292903	294
6	2944	224.756959292903	295
6	2944	224.756959292903	296
6	2971	225.740239214817	297
6	2971	225.740239214817	298
6	2971	225.740239214817	299
6	3007	228.363404788641	300
6	3007	228.363404788641	301
6	3007	228.363404788641	302
6	3043	231.870818294342	303
6	3043	231.870818294342	304
6	3043	231.870818294342	305
6	3068	233.797240524022	306
6	3068	233.797240524022	307
6	3068	233.797240524022	308
6	3094	235.285587680498	309
6	3094	235.285587680498	310
6	3094	235.285587680498	311
6	3116	236.696720023915	312
6	3116	236.696720023915	313
6	3116	236.696720023915	314
6	3141	238.070885826289	315
6	3141	238.070885826289	316
6	3141	238.070885826289	317
6	3156	239.446678173314	318
6	3156	239.446678173314	319
6	3156	239.446678173314	320
7	42	2.157696785028	0
7	185	16.135122848461	1
7	298	23.760412568181	2
7	319	25.730313100288	3
7	342	27.598956478764	4
7	344	27.604046182308	5
7	428	33.094339416725	6
7	554	43.79319096653	7
7	579	44.876556673393	8
7	732	58.29510685262	9
7	829	64.69477644123	10
7	911	70.833166821929	11
7	941	72.153950817716	12
7	983	75.730581073544	13
7	1030	78.900206083333	14
7	1037	78.92565719969	15
7	1055	80.145052397143	16
7	1084	81.264570554009	17
7	1190	90.571454398652	18
7	1215	91.634515925954	19
7	1309	99.965023434361	20
7	1479	113.866604344714	21
7	1518	116.916145814897	22
7	1529	116.954155341582	23
7	1613	121.589801306339	24
7	1684	126.228380195179	25
7	1876	140.240431811932	26
7	2016	154.287650798655	27
7	2159	164.864634339362	28
7	2181	166.593562025769	29
7	2372	178.106773269833	30
7	2426	183.416787092548	31
7	2525	190.388073886686	32
7	2626	197.707403162449	33
7	2974	225.750239214817	34
7	3071	233.807240524022	35
7	3122	236.706720023915	36

