version 2
run General-1-20231008-09:10:40-18810
attr configname General
attr datetime 20231008-09:10:40
attr experiment General
attr inifile omnetpp.ini
attr iterationvars ""
attr iterationvarsf ""
attr measurement ""
attr network Network3
attr processid 18810
attr repetition 1
attr replication #1
attr resultdir results
attr runnumber 1
attr seedset 1
param Network3.node[*].transmissionTime "uniform(1s, 2s)"
param Network3.node[*].delayTime "uniform(0.01s, 0.2s)"
param Network3.node[*].processingTime exponential(0.01s)
param Network3.node[0].lossProbability 0
param Network3.node[1].lossProbability 0.25
param Network3.node[2].lossProbability 0.25
param Network3.node[3].lossProbability "0.25 / 2"
param Network3.node[4].lossProbability "0.25 / 2"
param Network3.node[6].lossProbability "0.25 * 2"
param Network3.node[7].lossProbability "0.25 * 2"
param Network3.node[5].lossProbability "0.25 * 3"

vector 0 Network3.node[0] txVector ETV
vector 1 Network3.node[1] txVector ETV
vector 2 Network3.node[3] txVector ETV
vector 3 Network3.node[4] txVector ETV
vector 4 Network3.node[2] txVector ETV
vector 5 Network3.node[7] txVector ETV
vector 6 Network3.node[5] rxVector ETV
vector 7 Network3.node[6] txVector ETV
0	1	0.089234179703	0
0	1	0.089234179703	1
0	19	2.086418987836	2
0	19	2.086418987836	3
0	37	3.932729906055	4
0	37	3.932729906055	5
0	59	5.871857700988	6
0	59	5.871857700988	7
0	77	7.542385742187	8
0	77	7.542385742187	9
0	95	8.576557052208	10
0	95	8.576557052208	11
0	102	10.479927223528	12
0	102	10.479927223528	13
0	124	12.158762754061	14
0	124	12.158762754061	15
0	149	13.853162912073	16
0	149	13.853162912073	17
0	167	15.391587606751	18
0	167	15.391587606751	19
0	181	17.154820663974	20
0	181	17.154820663974	21
0	202	18.941772137888	22
0	202	18.941772137888	23
0	223	20.468830243804	24
0	223	20.468830243804	25
0	244	22.211595070901	26
0	244	22.211595070901	27
0	262	23.239901560013	28
0	262	23.239901560013	29
0	284	25.209497305685	30
0	284	25.209497305685	31
0	287	26.269415000574	32
0	287	26.269415000574	33
0	309	28.206605326505	34
0	309	28.206605326505	35
0	331	29.358742483779	36
0	331	29.358742483779	37
0	334	31.009863049145	38
0	334	31.009863049145	39
0	359	32.496208155648	40
0	359	32.496208155648	41
0	384	33.708941850466	42
0	384	33.708941850466	43
0	409	35.444007816146	44
0	409	35.444007816146	45
0	434	36.73851936276	46
0	434	36.73851936276	47
0	459	38.686489573567	48
0	459	38.686489573567	49
0	481	40.652216378487	50
0	481	40.652216378487	51
0	495	41.887484705196	52
0	495	41.887484705196	53
0	520	42.937195720271	54
0	520	42.937195720271	55
0	538	44.687217484348	56
0	538	44.687217484348	57
0	563	46.098028837357	58
0	563	46.098028837357	59
0	585	47.88012085704	60
0	585	47.88012085704	61
0	606	48.947152907847	62
0	606	48.947152907847	63
0	609	50.516647319196	64
0	609	50.516647319196	65
0	627	52.038933887266	66
0	627	52.038933887266	67
0	637	53.479762209233	68
0	637	53.479762209233	69
0	659	55.152909488304	70
0	659	55.152909488304	71
0	684	56.663270481283	72
0	684	56.663270481283	73
0	709	58.489677474721	74
0	709	58.489677474721	75
0	731	60.162012034216	76
0	731	60.162012034216	77
0	753	61.365069877942	78
0	753	61.365069877942	79
0	771	63.170305717158	80
0	771	63.170305717158	81
0	796	64.817059631347	82
0	796	64.817059631347	83
0	818	66.328201105473	84
0	818	66.328201105473	85
0	843	67.756819935869	86
0	843	67.756819935869	87
0	853	69.360314583294	88
0	853	69.360314583294	89
0	878	71.319014487211	90
0	878	71.319014487211	91
0	900	72.444655863922	92
0	900	72.444655863922	93
0	925	73.632287533609	94
0	925	73.632287533609	95
0	947	75.48007751408	96
0	947	75.48007751408	97
0	969	76.708682323461	98
0	969	76.708682323461	99
0	991	78.589025793485	100
0	991	78.589025793485	101
0	1012	80.475525277322	102
0	1012	80.475525277322	103
0	1015	82.291876788139	104
0	1015	82.291876788139	105
0	1033	83.731281224759	106
0	1033	83.731281224759	107
0	1058	84.909334580535	108
0	1058	84.909334580535	109
0	1080	86.284769413182	110
0	1080	86.284769413182	111
0	1101	87.77684121917	112
0	1101	87.77684121917	113
0	1123	89.412358380975	114
0	1123	89.412358380975	115
0	1144	91.344615555024	116
0	1144	91.344615555024	117
0	1165	93.175015123682	118
0	1165	93.175015123682	119
0	1187	94.424884787183	120
0	1187	94.424884787183	121
0	1208	95.607479075789	122
0	1208	95.607479075789	123
0	1230	96.815104734972	124
0	1230	96.815104734972	125
0	1248	98.791148286434	126
0	1248	98.791148286434	127
0	1270	100.545454231911	128
0	1270	100.545454231911	129
0	1291	101.601595271966	130
0	1291	101.601595271966	131
0	1316	102.80306194013	132
0	1316	102.80306194013	133
0	1319	104.590178235788	134
0	1319	104.590178235788	135
0	1344	106.12163655798	136
0	1344	106.12163655798	137
0	1362	107.524857027112	138
0	1362	107.524857027112	139
0	1384	109.041545808902	140
0	1384	109.041545808902	141
0	1402	110.937962412955	142
0	1402	110.937962412955	143
0	1423	112.228106873696	144
0	1423	112.228106873696	145
0	1445	114.133016965938	146
0	1445	114.133016965938	147
0	1467	116.003098680292	148
0	1467	116.003098680292	149
0	1489	117.965969829009	150
0	1489	117.965969829009	151
0	1514	118.976597769073	152
0	1514	118.976597769073	153
0	1536	120.660062670129	154
0	1536	120.660062670129	155
0	1546	122.454641027962	156
0	1546	122.454641027962	157
0	1567	123.861123901912	158
0	1567	123.861123901912	159
0	1588	125.276227381433	160
0	1588	125.276227381433	161
0	1613	126.544877508542	162
0	1613	126.544877508542	163
0	1635	127.994709027119	164
0	1635	127.994709027119	165
0	1649	129.559576636067	166
0	1649	129.559576636067	167
0	1674	131.097089661405	168
0	1674	131.097089661405	169
0	1696	132.559928778679	170
0	1696	132.559928778679	171
0	1715	134.069542076326	172
0	1715	134.069542076326	173
0	1737	135.070724147725	174
0	1737	135.070724147725	175
0	1759	136.559006467815	176
0	1759	136.559006467815	177
0	1781	137.640453979726	178
0	1781	137.640453979726	179
0	1803	138.649773041372	180
0	1803	138.649773041372	181
0	1828	140.160818829787	182
0	1828	140.160818829787	183
0	1846	142.035721381548	184
0	1846	142.035721381548	185
0	1868	143.762615139251	186
0	1868	143.762615139251	187
0	1890	145.266124652353	188
0	1890	145.266124652353	189
0	1908	147.033901848019	190
0	1908	147.033901848019	191
0	1930	148.050477733024	192
0	1930	148.050477733024	193
0	1951	149.120811171949	194
0	1951	149.120811171949	195
0	1972	150.517264662895	196
0	1972	150.517264662895	197
0	1994	152.043066627232	198
0	1994	152.043066627232	199
0	2016	153.711863228472	200
0	2016	153.711863228472	201
0	2037	154.74897589593	202
0	2037	154.74897589593	203
0	2059	156.564799729854	204
0	2059	156.564799729854	205
0	2065	157.649428732114	206
0	2065	157.649428732114	207
0	2083	158.713835132893	208
0	2083	158.713835132893	209
0	2108	160.068797045506	210
0	2108	160.068797045506	211
0	2130	161.939221900541	212
0	2130	161.939221900541	213
0	2155	163.470509708047	214
0	2155	163.470509708047	215
0	2177	164.528321239984	216
0	2177	164.528321239984	217
0	2202	166.000015906643	218
0	2202	166.000015906643	219
0	2224	167.752941820424	220
0	2224	167.752941820424	221
0	2246	169.474245169319	222
0	2246	169.474245169319	223
0	2271	171.056275148064	224
0	2271	171.056275148064	225
0	2293	172.482603180574	226
0	2293	172.482603180574	227
0	2318	173.997420203991	228
0	2318	173.997420203991	229
0	2340	175.757421953257	230
0	2340	175.757421953257	231
0	2365	176.992499592367	232
0	2365	176.992499592367	233
0	2387	178.383716696526	234
0	2387	178.383716696526	235
0	2412	180.134578829982	236
0	2412	180.134578829982	237
0	2434	181.47132482927	238
0	2434	181.47132482927	239
0	2459	183.462240456256	240
0	2459	183.462240456256	241
0	2477	185.052237140366	242
0	2477	185.052237140366	243
0	2480	186.193352601376	244
0	2480	186.193352601376	245
0	2502	187.42095034395	246
0	2502	187.42095034395	247
0	2524	189.34569115087	248
0	2524	189.34569115087	249
0	2545	191.089827067802	250
0	2545	191.089827067802	251
0	2567	192.957814814873	252
0	2567	192.957814814873	253
0	2585	194.845307877172	254
0	2585	194.845307877172	255
0	2603	196.224423741108	256
0	2603	196.224423741108	257
0	2625	197.500261104318	258
0	2625	197.500261104318	259
0	2647	199.159928577372	260
0	2647	199.159928577372	261
0	2672	200.846553623795	262
0	2672	200.846553623795	263
0	2694	202.402453836638	264
0	2694	202.402453836638	265
0	2719	204.382044006723	266
0	2719	204.382044006723	267
0	2744	205.801668585862	268
0	2744	205.801668585862	269
0	2762	206.872210625677	270
0	2762	206.872210625677	271
0	2784	208.22585841024	272
0	2784	208.22585841024	273
0	2798	210.022416993628	274
0	2798	210.022416993628	275
0	2823	211.910413481413	276
0	2823	211.910413481413	277
0	2845	213.812022030704	278
0	2845	213.812022030704	279
0	2870	215.219447044773	280
0	2870	215.219447044773	281
0	2895	216.601289436106	282
0	2895	216.601289436106	283
0	2906	218.161439731602	284
0	2906	218.161439731602	285
0	2928	219.358636080638	286
0	2928	219.358636080638	287
0	2947	220.611477562111	288
0	2947	220.611477562111	289
0	2961	221.945564426599	290
0	2961	221.945564426599	291
0	2964	223.234711135389	292
0	2964	223.234711135389	293
0	2989	225.171791525675	294
0	2989	225.171791525675	295
0	3014	226.441486356897	296
0	3014	226.441486356897	297
0	3036	228.248233174091	298
0	3036	228.248233174091	299
0	3058	230.183386289865	300
0	3058	230.183386289865	301
0	3080	231.198829926202	302
0	3080	231.198829926202	303
0	3105	232.287018567907	304
0	3105	232.287018567907	305
0	3127	233.485237714952	306
0	3127	233.485237714952	307
0	3145	234.649929816952	308
0	3145	234.649929816952	309
0	3170	236.132038269775	310
0	3170	236.132038269775	311
0	3188	237.321625676123	312
0	3188	237.321625676123	313
0	3210	238.927522041952	314
0	3210	238.927522041952	315
1	4	0.126198958082	0
1	4	0.126198958082	1
1	4	0.126198958082	2
1	22	2.100177179763	3
1	22	2.100177179763	4
1	22	2.100177179763	5
1	47	3.996068728951	6
1	47	3.996068728951	7
1	47	3.996068728951	8
1	69	5.914831632817	9
1	69	5.914831632817	10
1	69	5.914831632817	11
1	80	7.562168201003	12
1	80	7.562168201003	13
1	80	7.562168201003	14
1	98	8.587829597528	15
1	98	8.587829597528	16
1	98	8.587829597528	17
1	105	10.49230507713	18
1	105	10.49230507713	19
1	105	10.49230507713	20
1	128	12.174110168573	21
1	128	12.174110168573	22
1	128	12.174110168573	23
1	159	13.928025560287	24
1	159	13.928025560287	25
1	159	13.928025560287	26
1	170	15.405996432163	27
1	170	15.405996432163	28
1	170	15.405996432163	29
1	184	17.16548278133	30
1	184	17.16548278133	31
1	184	17.16548278133	32
1	212	19.017800581855	33
1	212	19.017800581855	34
1	212	19.017800581855	35
1	226	20.48096163241	36
1	226	20.48096163241	37
1	226	20.48096163241	38
1	247	22.224421499738	39
1	247	22.224421499738	40
1	247	22.224421499738	41
1	266	23.258134807073	42
1	266	23.258134807073	43
1	266	23.258134807073	44
1	298	26.310498553526	45
1	298	26.310498553526	46
1	298	26.310498553526	47
1	312	28.218368147173	48
1	312	28.218368147173	49
1	312	28.218368147173	50
1	338	31.029185458255	51
1	338	31.029185458255	52
1	338	31.029185458255	53
1	362	32.506979757346	54
1	362	32.506979757346	55
1	362	32.506979757346	56
1	387	33.733733758324	57
1	387	33.733733758324	58
1	387	33.733733758324	59
1	413	35.455834451409	60
1	413	35.455834451409	61
1	413	35.455834451409	62
1	441	36.76607067635	63
1	441	36.76607067635	64
1	441	36.76607067635	65
1	463	38.702110199546	66
1	463	38.702110199546	67
1	463	38.702110199546	68
1	485	40.679095782991	69
1	485	40.679095782991	70
1	485	40.679095782991	71
1	498	41.902583221035	72
1	498	41.902583221035	73
1	498	41.902583221035	74
1	530	42.999528730851	75
1	530	42.999528730851	76
1	530	42.999528730851	77
1	549	44.74015527122	78
1	549	44.74015527122	79
1	549	44.74015527122	80
1	567	46.115318529052	81
1	567	46.115318529052	82
1	567	46.115318529052	83
1	589	47.906821844052	84
1	589	47.906821844052	85
1	589	47.906821844052	86
1	615	50.550068821175	87
1	615	50.550068821175	88
1	615	50.550068821175	89
1	640	53.490332774474	90
1	640	53.490332774474	91
1	640	53.490332774474	92
1	674	55.220261472774	93
1	674	55.220261472774	94
1	674	55.220261472774	95
1	690	56.692519878155	96
1	690	56.692519878155	97
1	690	56.692519878155	98
1	713	58.514769882647	99
1	713	58.514769882647	100
1	713	58.514769882647	101
1	746	60.221385744293	102
1	746	60.221385744293	103
1	746	60.221385744293	104
1	756	61.381610352817	105
1	756	61.381610352817	106
1	756	61.381610352817	107
1	778	63.205705714467	108
1	778	63.205705714467	109
1	778	63.205705714467	110
1	799	64.834845632166	111
1	799	64.834845632166	112
1	799	64.834845632166	113
1	821	66.339355424575	114
1	821	66.339355424575	115
1	821	66.339355424575	116
1	864	69.413698749543	117
1	864	69.413698749543	118
1	864	69.413698749543	119
1	882	71.338651287163	120
1	882	71.338651287163	121
1	882	71.338651287163	122
1	903	72.464397602377	123
1	903	72.464397602377	124
1	903	72.464397602377	125
1	929	73.652720932683	126
1	929	73.652720932683	127
1	929	73.652720932683	128
1	950	75.508559945723	129
1	950	75.508559945723	130
1	950	75.508559945723	131
1	973	76.725573542536	132
1	973	76.725573542536	133
1	973	76.725573542536	134
1	995	78.607567036417	135
1	995	78.607567036417	136
1	995	78.607567036417	137
1	1018	82.303625280247	138
1	1018	82.303625280247	139
1	1018	82.303625280247	140
1	1043	83.776903275363	141
1	1043	83.776903275363	142
1	1043	83.776903275363	143
1	1069	84.956364377057	144
1	1069	84.956364377057	145
1	1069	84.956364377057	146
1	1090	86.331165991026	147
1	1090	86.331165991026	148
1	1090	86.331165991026	149
1	1104	87.787219151363	150
1	1104	87.787219151363	151
1	1104	87.787219151363	152
1	1126	89.428350558702	153
1	1126	89.428350558702	154
1	1126	89.428350558702	155
1	1147	91.365089639527	156
1	1147	91.365089639527	157
1	1147	91.365089639527	158
1	1169	93.194580090306	159
1	1169	93.194580090306	160
1	1169	93.194580090306	161
1	1197	94.477141262584	162
1	1197	94.477141262584	163
1	1197	94.477141262584	164
1	1215	95.642408491487	165
1	1215	95.642408491487	166
1	1215	95.642408491487	167
1	1233	96.826846288653	168
1	1233	96.826846288653	169
1	1233	96.826846288653	170
1	1251	98.80351478484	171
1	1251	98.80351478484	172
1	1251	98.80351478484	173
1	1277	100.57348880431	174
1	1277	100.57348880431	175
1	1277	100.57348880431	176
1	1302	101.650119144415	177
1	1302	101.650119144415	178
1	1302	101.650119144415	179
1	1323	104.608951335897	180
1	1323	104.608951335897	181
1	1323	104.608951335897	182
1	1347	106.145855646266	183
1	1347	106.145855646266	184
1	1347	106.145855646266	185
1	1365	107.547131360579	186
1	1365	107.547131360579	187
1	1365	107.547131360579	188
1	1388	109.054281177582	189
1	1388	109.054281177582	190
1	1388	109.054281177582	191
1	1406	110.957478252786	192
1	1406	110.957478252786	193
1	1406	110.957478252786	194
1	1426	112.24329860908	195
1	1426	112.24329860908	196
1	1426	112.24329860908	197
1	1451	114.186523521773	198
1	1451	114.186523521773	199
1	1451	114.186523521773	200
1	1470	116.021471889885	201
1	1470	116.021471889885	202
1	1470	116.021471889885	203
1	1492	117.976859888579	204
1	1492	117.976859888579	205
1	1492	117.976859888579	206
1	1524	119.047107711576	207
1	1524	119.047107711576	208
1	1524	119.047107711576	209
1	1556	122.500961644504	210
1	1556	122.500961644504	211
1	1556	122.500961644504	212
1	1571	123.878565615852	213
1	1571	123.878565615852	214
1	1571	123.878565615852	215
1	1594	125.302744470902	216
1	1594	125.302744470902	217
1	1594	125.302744470902	218
1	1619	126.582344924359	219
1	1619	126.582344924359	220
1	1619	126.582344924359	221
1	1638	128.00658964932	222
1	1638	128.00658964932	223
1	1638	128.00658964932	224
1	1652	129.571358057869	225
1	1652	129.571358057869	226
1	1652	129.571358057869	227
1	1677	131.112692137183	228
1	1677	131.112692137183	229
1	1677	131.112692137183	230
1	1699	132.573452009891	231
1	1699	132.573452009891	232
1	1699	132.573452009891	233
1	1729	134.14349894497	234
1	1729	134.14349894497	235
1	1729	134.14349894497	236
1	1740	135.081371832726	237
1	1740	135.081371832726	238
1	1740	135.081371832726	239
1	1762	136.569960437358	240
1	1762	136.569960437358	241
1	1762	136.569960437358	242
1	1787	137.686246595735	243
1	1787	137.686246595735	244
1	1787	137.686246595735	245
1	1818	138.729293931771	246
1	1818	138.729293931771	247
1	1818	138.729293931771	248
1	1831	140.176830641914	249
1	1831	140.176830641914	250
1	1831	140.176830641914	251
1	1856	142.099018376525	252
1	1856	142.099018376525	253
1	1856	142.099018376525	254
1	1878	143.806409419499	255
1	1878	143.806409419499	256
1	1878	143.806409419499	257
1	1894	145.2795537535	258
1	1894	145.2795537535	259
1	1894	145.2795537535	260
1	1911	147.045109933114	261
1	1911	147.045109933114	262
1	1911	147.045109933114	263
1	1934	148.066902393301	264
1	1934	148.066902393301	265
1	1934	148.066902393301	266
1	1955	149.144300312643	267
1	1955	149.144300312643	268
1	1955	149.144300312643	269
1	1975	150.5280553534	270
1	1975	150.5280553534	271
1	1975	150.5280553534	272
1	1997	152.057011392338	273
1	1997	152.057011392338	274
1	1997	152.057011392338	275
1	2020	153.733700206171	276
1	2020	153.733700206171	277
1	2020	153.733700206171	278
1	2040	154.765016895587	279
1	2040	154.765016895587	280
1	2040	154.765016895587	281
1	2069	157.665527064394	282
1	2069	157.665527064394	283
1	2069	157.665527064394	284
1	2097	158.840538806059	285
1	2097	158.840538806059	286
1	2097	158.840538806059	287
1	2112	160.090882889413	288
1	2112	160.090882889413	289
1	2112	160.090882889413	290
1	2133	161.952075956932	291
1	2133	161.952075956932	292
1	2133	161.952075956932	293
1	2159	163.48767585795	294
1	2159	163.48767585795	295
1	2159	163.48767585795	296
1	2180	164.557110077584	297
1	2180	164.557110077584	298
1	2180	164.557110077584	299
1	2205	166.010089365497	300
1	2205	166.010089365497	301
1	2205	166.010089365497	302
1	2234	167.799684378571	303
1	2234	167.799684378571	304
1	2234	167.799684378571	305
1	2256	169.52531364073	306
1	2256	169.52531364073	307
1	2256	169.52531364073	308
1	2277	171.085852880606	309
1	2277	171.085852880606	310
1	2277	171.085852880606	311
1	2297	172.501961423918	312
1	2297	172.501961423918	313
1	2297	172.501961423918	314
1	2321	174.013000513762	315
1	2321	174.013000513762	316
1	2321	174.013000513762	317
1	2344	175.773613526912	318
1	2344	175.773613526912	319
1	2344	175.773613526912	320
1	2371	177.028881732592	321
1	2371	177.028881732592	322
1	2371	177.028881732592	323
1	2391	178.399296621793	324
1	2391	178.399296621793	325
1	2391	178.399296621793	326
1	2422	180.192793460574	327
1	2422	180.192793460574	328
1	2422	180.192793460574	329
1	2444	181.507911091827	330
1	2444	181.507911091827	331
1	2444	181.507911091827	332
1	2469	183.513097466492	333
1	2469	183.513097466492	334
1	2469	183.513097466492	335
1	2483	186.204923861495	336
1	2483	186.204923861495	337
1	2483	186.204923861495	338
1	2505	187.435844071671	339
1	2505	187.435844071671	340
1	2505	187.435844071671	341
1	2527	189.364619836369	342
1	2527	189.364619836369	343
1	2527	189.364619836369	344
1	2551	191.135678751289	345
1	2551	191.135678751289	346
1	2551	191.135678751289	347
1	2577	192.99647786947	348
1	2577	192.99647786947	349
1	2577	192.99647786947	350
1	2588	194.86068521795	351
1	2588	194.86068521795	352
1	2588	194.86068521795	353
1	2607	196.242912099873	354
1	2607	196.242912099873	355
1	2607	196.242912099873	356
1	2628	197.511170944827	357
1	2628	197.511170944827	358
1	2628	197.511170944827	359
1	2650	199.197930239762	360
1	2650	199.197930239762	361
1	2650	199.197930239762	362
1	2676	200.864248903363	363
1	2676	200.864248903363	364
1	2676	200.864248903363	365
1	2697	202.418270013072	366
1	2697	202.418270013072	367
1	2697	202.418270013072	368
1	2726	204.406875970265	369
1	2726	204.406875970265	370
1	2726	204.406875970265	371
1	2748	205.812431638324	372
1	2748	205.812431638324	373
1	2748	205.812431638324	374
1	2765	206.885138762972	375
1	2765	206.885138762972	376
1	2765	206.885138762972	377
1	2787	208.239783479457	378
1	2787	208.239783479457	379
1	2787	208.239783479457	380
1	2802	210.039715780928	381
1	2802	210.039715780928	382
1	2802	210.039715780928	383
1	2826	211.922838825955	384
1	2826	211.922838825955	385
1	2826	211.922838825955	386
1	2848	213.823580261849	387
1	2848	213.823580261849	388
1	2848	213.823580261849	389
1	2874	215.235313411613	390
1	2874	215.235313411613	391
1	2874	215.235313411613	392
1	2898	216.649651227898	393
1	2898	216.649651227898	394
1	2898	216.649651227898	395
1	2910	218.18318475652	396
1	2910	218.18318475652	397
1	2910	218.18318475652	398
1	2931	219.371170171229	399
1	2931	219.371170171229	400
1	2931	219.371170171229	401
1	2951	220.628286449292	402
1	2951	220.628286449292	403
1	2951	220.628286449292	404
1	2979	223.304757533461	405
1	2979	223.304757533461	406
1	2979	223.304757533461	407
1	2992	225.189974814035	408
1	2992	225.189974814035	409
1	2992	225.189974814035	410
1	3028	226.513591783771	411
1	3028	226.513591783771	412
1	3028	226.513591783771	413
1	3042	228.280174257645	414
1	3042	228.280174257645	415
1	3042	228.280174257645	416
1	3068	230.23756071481	417
1	3068	230.23756071481	418
1	3068	230.23756071481	419
1	3086	231.220340894369	420
1	3086	231.220340894369	421
1	3086	231.220340894369	422
1	3109	232.306863042891	423
1	3109	232.306863042891	424
1	3109	232.306863042891	425
1	3130	233.499994645807	426
1	3130	233.499994645807	427
1	3130	233.499994645807	428
1	3148	234.665018807847	429
1	3148	234.665018807847	430
1	3148	234.665018807847	431
1	3180	236.226708237694	432
1	3180	236.226708237694	433
1	3180	236.226708237694	434
1	3199	237.383093203197	435
1	3199	237.383093203197	436
1	3199	237.383093203197	437
1	3213	238.942053357208	438
1	3213	238.942053357208	439
1	3213	238.942053357208	440
2	8	0.138891997659	0
2	8	0.138891997659	1
2	8	0.138891997659	2
2	27	2.110454876039	3
2	27	2.110454876039	4
2	27	2.110454876039	5
2	51	4.006957524237	6
2	51	4.006957524237	7
2	51	4.006957524237	8
2	73	5.940124714404	9
2	73	5.940124714404	10
2	73	5.940124714404	11
2	91	7.587740419719	12
2	91	7.587740419719	13
2	91	7.587740419719	14
2	120	10.552015869711	15
2	120	10.552015869711	16
2	120	10.552015869711	17
2	138	12.199831762261	18
2	138	12.199831762261	19
2	138	12.199831762261	20
2	163	13.948459684417	21
2	163	13.948459684417	22
2	163	13.948459684417	23
2	189	17.178188107364	24
2	189	17.178188107364	25
2	189	17.178188107364	26
2	216	19.039541386485	27
2	216	19.039541386485	28
2	216	19.039541386485	29
2	233	20.50498083831	30
2	233	20.50498083831	31
2	233	20.50498083831	32
2	252	22.242469484675	33
2	252	22.242469484675	34
2	252	22.242469484675	35
2	276	23.277626771687	36
2	276	23.277626771687	37
2	276	23.277626771687	38
2	305	26.321005232624	39
2	305	26.321005232624	40
2	305	26.321005232624	41
2	316	28.228881270482	42
2	316	28.228881270482	43
2	316	28.228881270482	44
2	344	31.040764082529	45
2	344	31.040764082529	46
2	344	31.040764082529	47
2	377	32.548889831293	48
2	377	32.548889831293	49
2	377	32.548889831293	50
2	402	33.835106247871	51
2	402	33.835106247871	52
2	402	33.835106247871	53
2	419	35.470857663862	54
2	419	35.470857663862	55
2	419	35.470857663862	56
2	448	36.780297857054	57
2	448	36.780297857054	58
2	448	36.780297857054	59
2	470	38.721250889273	60
2	470	38.721250889273	61
2	470	38.721250889273	62
2	505	41.917308574417	63
2	505	41.917308574417	64
2	505	41.917308574417	65
2	534	43.015523003222	66
2	534	43.015523003222	67
2	534	43.015523003222	68
2	556	44.761537485764	69
2	556	44.761537485764	70
2	556	44.761537485764	71
2	574	46.141521550403	72
2	574	46.141521550403	73
2	574	46.141521550403	74
2	599	47.957460259505	75
2	599	47.957460259505	76
2	599	47.957460259505	77
2	623	50.584874647506	78
2	623	50.584874647506	79
2	623	50.584874647506	80
2	645	53.501408261987	81
2	645	53.501408261987	82
2	645	53.501408261987	83
2	673	55.211475607124	84
2	673	55.211475607124	85
2	673	55.211475607124	86
2	698	56.707733761976	87
2	698	56.707733761976	88
2	698	56.707733761976	89
2	719	58.528340180394	90
2	719	58.528340180394	91
2	719	58.528340180394	92
2	745	60.216245757385	93
2	745	60.216245757385	94
2	745	60.216245757385	95
2	764	61.400322986574	96
2	764	61.400322986574	97
2	764	61.400322986574	98
2	785	63.215985656686	99
2	785	63.215985656686	100
2	785	63.215985656686	101
2	803	64.845174202127	102
2	803	64.845174202127	103
2	803	64.845174202127	104
2	827	66.355489974747	105
2	827	66.355489974747	106
2	827	66.355489974747	107
2	871	69.424159767431	108
2	871	69.424159767431	109
2	871	69.424159767431	110
2	893	71.363621965552	111
2	893	71.363621965552	112
2	893	71.363621965552	113
2	908	72.488075135975	114
2	908	72.488075135975	115
2	908	72.488075135975	116
2	935	73.670349193013	117
2	935	73.670349193013	118
2	935	73.670349193013	119
2	955	75.529059698157	120
2	955	75.529059698157	121
2	955	75.529059698157	122
2	980	76.742856470662	123
2	980	76.742856470662	124
2	980	76.742856470662	125
2	1002	78.620145806439	126
2	1002	78.620145806439	127
2	1002	78.620145806439	128
2	1022	82.318719436395	129
2	1022	82.318719436395	130
2	1022	82.318719436395	131
2	1047	83.80134776338	132
2	1047	83.80134776338	133
2	1047	83.80134776338	134
2	1076	84.968167301562	135
2	1076	84.968167301562	136
2	1076	84.968167301562	137
2	1094	86.345021922192	138
2	1094	86.345021922192	139
2	1094	86.345021922192	140
2	1112	87.800966105974	141
2	1112	87.800966105974	142
2	1112	87.800966105974	143
2	1131	89.452358974627	144
2	1131	89.452358974627	145
2	1131	89.452358974627	146
2	1155	91.380584710344	147
2	1155	91.380584710344	148
2	1155	91.380584710344	149
2	1183	93.278016459158	150
2	1183	93.278016459158	151
2	1183	93.278016459158	152
2	1201	94.497931211446	153
2	1201	94.497931211446	154
2	1201	94.497931211446	155
2	1222	95.653470113824	156
2	1222	95.653470113824	157
2	1222	95.653470113824	158
2	1240	96.84275960444	159
2	1240	96.84275960444	160
2	1240	96.84275960444	161
2	1256	98.817175555218	162
2	1256	98.817175555218	163
2	1256	98.817175555218	164
2	1284	100.588111606413	165
2	1284	100.588111606413	166
2	1284	100.588111606413	167
2	1309	101.667428078257	168
2	1309	101.667428078257	169
2	1309	101.667428078257	170
2	1333	104.633189057392	171
2	1333	104.633189057392	172
2	1333	104.633189057392	173
2	1351	106.159114125658	174
2	1351	106.159114125658	175
2	1351	106.159114125658	176
2	1373	107.571842153096	177
2	1373	107.571842153096	178
2	1373	107.571842153096	179
2	1394	109.066249436488	180
2	1394	109.066249436488	181
2	1394	109.066249436488	182
2	1413	110.976488431872	183
2	1413	110.976488431872	184
2	1413	110.976488431872	185
2	1434	112.268644577056	186
2	1434	112.268644577056	187
2	1434	112.268644577056	188
2	1456	114.205039612814	189
2	1456	114.205039612814	190
2	1456	114.205039612814	191
2	1476	116.049672119382	192
2	1476	116.049672119382	193
2	1476	116.049672119382	194
2	1503	118.003089656138	195
2	1503	118.003089656138	196
2	1503	118.003089656138	197
2	1528	119.058666245897	198
2	1528	119.058666245897	199
2	1528	119.058666245897	200
2	1560	122.516185937997	201
2	1560	122.516185937997	202
2	1560	122.516185937997	203
2	1581	123.904309011011	204
2	1581	123.904309011011	205
2	1581	123.904309011011	206
2	1598	125.316731070843	207
2	1598	125.316731070843	208
2	1598	125.316731070843	209
2	1627	126.620229161291	210
2	1627	126.620229161291	211
2	1627	126.620229161291	212
2	1660	129.593644695888	213
2	1660	129.593644695888	214
2	1660	129.593644695888	215
2	1685	131.140293443981	216
2	1685	131.140293443981	217
2	1685	131.140293443981	218
2	1703	132.593488868328	219
2	1703	132.593488868328	220
2	1703	132.593488868328	221
2	1733	134.158801528452	222
2	1733	134.158801528452	223
2	1733	134.158801528452	224
2	1744	135.10531049096	225
2	1744	135.10531049096	226
2	1744	135.10531049096	227
2	1766	136.580630304858	228
2	1766	136.580630304858	229
2	1766	136.580630304858	230
2	1795	137.711136962394	231
2	1795	137.711136962394	232
2	1795	137.711136962394	233
2	1817	138.728425224612	234
2	1817	138.728425224612	235
2	1817	138.728425224612	236
2	1839	140.193283672475	237
2	1839	140.193283672475	238
2	1839	140.193283672475	239
2	1860	142.109765741665	240
2	1860	142.109765741665	241
2	1860	142.109765741665	242
2	1886	143.825000409411	243
2	1886	143.825000409411	244
2	1886	143.825000409411	245
2	1904	145.31842414128	246
2	1904	145.31842414128	247
2	1904	145.31842414128	248
2	1916	147.062361500869	249
2	1916	147.062361500869	250
2	1916	147.062361500869	251
2	1941	148.08332600984	252
2	1941	148.08332600984	253
2	1941	148.08332600984	254
2	1961	149.155288579282	255
2	1961	149.155288579282	256
2	1961	149.155288579282	257
2	1979	150.54235901988	258
2	1979	150.54235901988	259
2	1979	150.54235901988	260
2	2001	152.067859859382	261
2	2001	152.067859859382	262
2	2001	152.067859859382	263
2	2026	153.748048798221	264
2	2026	153.748048798221	265
2	2026	153.748048798221	266
2	2051	154.793835956295	267
2	2051	154.793835956295	268
2	2051	154.793835956295	269
2	2079	157.690350078554	270
2	2079	157.690350078554	271
2	2079	157.690350078554	272
2	2101	158.868088281854	273
2	2101	158.868088281854	274
2	2101	158.868088281854	275
2	2119	160.10397593737	276
2	2119	160.10397593737	277
2	2119	160.10397593737	278
2	2144	161.9759598827	279
2	2144	161.9759598827	280
2	2144	161.9759598827	281
2	2165	163.498898698655	282
2	2165	163.498898698655	283
2	2165	163.498898698655	284
2	2188	164.576164206245	285
2	2188	164.576164206245	286
2	2188	164.576164206245	287
2	2213	166.030600046221	288
2	2213	166.030600046221	289
2	2213	166.030600046221	290
2	2238	167.809806083796	291
2	2238	167.809806083796	292
2	2238	167.809806083796	293
2	2264	169.561004750958	294
2	2264	169.561004750958	295
2	2264	169.561004750958	296
2	2282	171.102424819433	297
2	2282	171.102424819433	298
2	2282	171.102424819433	299
2	2308	172.535406228355	300
2	2308	172.535406228355	301
2	2308	172.535406228355	302
2	2326	174.027675096525	303
2	2326	174.027675096525	304
2	2326	174.027675096525	305
2	2350	175.799753032531	306
2	2350	175.799753032531	307
2	2350	175.799753032531	308
2	2376	177.042884188538	309
2	2376	177.042884188538	310
2	2376	177.042884188538	311
2	2402	178.428121434707	312
2	2402	178.428121434707	313
2	2402	178.428121434707	314
2	2426	180.207418668555	315
2	2426	180.207418668555	316
2	2426	180.207418668555	317
2	2452	181.526380453335	318
2	2452	181.526380453335	319
2	2452	181.526380453335	320
2	2473	183.525888497555	321
2	2473	183.525888497555	322
2	2473	183.525888497555	323
2	2494	186.230107215327	324
2	2494	186.230107215327	325
2	2494	186.230107215327	326
2	2513	187.453070121301	327
2	2513	187.453070121301	328
2	2513	187.453070121301	329
2	2532	189.38479076732	330
2	2532	189.38479076732	331
2	2532	189.38479076732	332
2	2555	191.146505413259	333
2	2555	191.146505413259	334
2	2555	191.146505413259	335
2	2581	193.007274009389	336
2	2581	193.007274009389	337
2	2581	193.007274009389	338
2	2596	194.879600011279	339
2	2596	194.879600011279	340
2	2596	194.879600011279	341
2	2617	196.263270683506	342
2	2617	196.263270683506	343
2	2617	196.263270683506	344
2	2632	197.52450811473	345
2	2632	197.52450811473	346
2	2632	197.52450811473	347
2	2655	199.218645760791	348
2	2655	199.218645760791	349
2	2655	199.218645760791	350
2	2682	200.875948192857	351
2	2682	200.875948192857	352
2	2682	200.875948192857	353
2	2705	202.442740085327	354
2	2705	202.442740085327	355
2	2705	202.442740085327	356
2	2733	204.422409517539	357
2	2733	204.422409517539	358
2	2733	204.422409517539	359
2	2755	205.827286395781	360
2	2755	205.827286395781	361
2	2755	205.827286395781	362
2	2769	206.895401440938	363
2	2769	206.895401440938	364
2	2769	206.895401440938	365
2	2791	208.268925539165	366
2	2791	208.268925539165	367
2	2791	208.268925539165	368
2	2809	210.06317651917	369
2	2809	210.06317651917	370
2	2809	210.06317651917	371
2	2838	211.9643966443	372
2	2838	211.9643966443	373
2	2838	211.9643966443	374
2	2852	213.836840866317	375
2	2852	213.836840866317	376
2	2852	213.836840866317	377
2	2881	215.25127953787	378
2	2881	215.25127953787	379
2	2881	215.25127953787	380
2	2916	218.199753581525	381
2	2916	218.199753581525	382
2	2916	218.199753581525	383
2	2936	219.387907447198	384
2	2936	219.387907447198	385
2	2936	219.387907447198	386
2	2978	223.299892796697	387
2	2978	223.299892796697	388
2	2978	223.299892796697	389
2	3003	225.234300223232	390
2	3003	225.234300223232	391
2	3003	225.234300223232	392
2	3029	226.516791182417	393
2	3029	226.516791182417	394
2	3029	226.516791182417	395
2	3054	228.316024784863	396
2	3054	228.316024784863	397
2	3054	228.316024784863	398
2	3072	230.251018259414	399
2	3072	230.251018259414	400
2	3072	230.251018259414	401
2	3090	231.236137377714	402
2	3090	231.236137377714	403
2	3090	231.236137377714	404
2	3116	232.328639075207	405
2	3116	232.328639075207	406
2	3116	232.328639075207	407
2	3135	233.515443862439	408
2	3135	233.515443862439	409
2	3135	233.515443862439	410
2	3153	234.681406369718	411
2	3153	234.681406369718	412
2	3153	234.681406369718	413
2	3184	236.240104827062	414
2	3184	236.240104827062	415
2	3184	236.240104827062	416
2	3206	237.411628905868	417
2	3206	237.411628905868	418
2	3206	237.411628905868	419
2	3217	238.952945934057	420
2	3217	238.952945934057	421
2	3217	238.952945934057	422
3	12	0.205690100955	0
3	12	0.205690100955	1
3	12	0.205690100955	2
3	33	2.131224152726	3
3	33	2.131224152726	4
3	33	2.131224152726	5
3	43	3.98509479656	6
3	43	3.98509479656	7
3	43	3.98509479656	8
3	65	5.90263076437	9
3	65	5.90263076437	10
3	65	5.90263076437	11
3	87	7.575459410134	12
3	87	7.575459410134	13
3	87	7.575459410134	14
3	112	10.511085135633	15
3	112	10.511085135633	16
3	112	10.511085135633	17
3	131	12.179739257308	18
3	131	12.179739257308	19
3	131	12.179739257308	20
3	155	13.90786896576	21
3	155	13.90786896576	22
3	155	13.90786896576	23
3	177	15.449474908206	24
3	177	15.449474908206	25
3	177	15.449474908206	26
3	192	17.180727578918	27
3	192	17.180727578918	28
3	192	17.180727578918	29
3	208	18.9980359242	30
3	208	18.9980359242	31
3	208	18.9980359242	32
3	234	20.505045521053	33
3	234	20.505045521053	34
3	234	20.505045521053	35
3	251	22.24216140826	36
3	251	22.24216140826	37
3	251	22.24216140826	38
3	269	23.263511316844	39
3	269	23.263511316844	40
3	269	23.263511316844	41
3	293	26.300131919536	42
3	293	26.300131919536	43
3	293	26.300131919536	44
3	317	28.233006516324	45
3	317	28.233006516324	46
3	317	28.233006516324	47
3	345	31.045865236811	48
3	345	31.045865236811	49
3	345	31.045865236811	50
3	366	32.518749581833	51
3	366	32.518749581833	52
3	366	32.518749581833	53
3	394	33.755351141965	54
3	394	33.755351141965	55
3	394	33.755351141965	56
3	424	35.490313233488	57
3	424	35.490313233488	58
3	424	35.490313233488	59
3	440	36.759784379902	60
3	440	36.759784379902	61
3	440	36.759784379902	62
3	469	38.714105251629	63
3	469	38.714105251629	64
3	469	38.714105251629	65
3	491	40.695575102445	66
3	491	40.695575102445	67
3	491	40.695575102445	68
3	516	41.950201656126	69
3	516	41.950201656126	70
3	516	41.950201656126	71
3	526	42.969542412188	72
3	526	42.969542412188	73
3	526	42.969542412188	74
3	544	44.724529742908	75
3	544	44.724529742908	76
3	544	44.724529742908	77
3	573	46.137498014719	78
3	573	46.137498014719	79
3	573	46.137498014719	80
3	592	47.914981791143	81
3	592	47.914981791143	82
3	592	47.914981791143	83
3	616	50.552071233669	84
3	616	50.552071233669	85
3	616	50.552071233669	86
3	633	52.065946572293	87
3	633	52.065946572293	88
3	633	52.065946572293	89
3	648	53.502994148002	90
3	648	53.502994148002	91
3	648	53.502994148002	92
3	665	55.187328786534	93
3	665	55.187328786534	94
3	665	55.187328786534	95
3	691	56.697160688327	96
3	691	56.697160688327	97
3	691	56.697160688327	98
3	720	58.532132480422	99
3	720	58.532132480422	100
3	720	58.532132480422	101
3	737	60.194231833834	102
3	737	60.194231833834	103
3	737	60.194231833834	104
3	763	61.397442600686	105
3	763	61.397442600686	106
3	763	61.397442600686	107
3	777	63.199646352763	108
3	777	63.199646352763	109
3	777	63.199646352763	110
3	808	64.861140043465	111
3	808	64.861140043465	112
3	808	64.861140043465	113
3	826	66.354262841029	114
3	826	66.354262841029	115
3	826	66.354262841029	116
3	849	67.786032410549	117
3	849	67.786032410549	118
3	849	67.786032410549	119
3	859	69.391232886095	120
3	859	69.391232886095	121
3	859	69.391232886095	122
3	885	71.340241529313	123
3	885	71.340241529313	124
3	885	71.340241529313	125
3	911	72.494144068409	126
3	911	72.494144068409	127
3	911	72.494144068409	128
3	939	73.701504734827	129
3	939	73.701504734827	130
3	939	73.701504734827	131
3	954	75.525182664489	132
3	954	75.525182664489	133
3	954	75.525182664489	134
3	979	76.741336626483	135
3	979	76.741336626483	136
3	979	76.741336626483	137
3	998	78.616373986092	138
3	998	78.616373986092	139
3	998	78.616373986092	140
3	1023	82.320134788174	141
3	1023	82.320134788174	142
3	1023	82.320134788174	143
3	1039	83.760876710878	144
3	1039	83.760876710878	145
3	1039	83.760876710878	146
3	1064	84.936548591997	147
3	1064	84.936548591997	148
3	1064	84.936548591997	149
3	1086	86.319684902721	150
3	1086	86.319684902721	151
3	1086	86.319684902721	152
3	1109	87.798552437447	153
3	1109	87.798552437447	154
3	1109	87.798552437447	155
3	1130	89.450321759469	156
3	1130	89.450321759469	157
3	1130	89.450321759469	158
3	1154	91.377943303417	159
3	1154	91.377943303417	160
3	1154	91.377943303417	161
3	1175	93.214539240805	162
3	1175	93.214539240805	163
3	1175	93.214539240805	164
3	1193	94.453900815834	165
3	1193	94.453900815834	166
3	1193	94.453900815834	167
3	1214	95.640623416345	168
3	1214	95.640623416345	169
3	1214	95.640623416345	170
3	1241	96.844453640701	171
3	1241	96.844453640701	172
3	1241	96.844453640701	173
3	1266	98.845760610227	174
3	1266	98.845760610227	175
3	1266	98.845760610227	176
3	1276	100.568448390677	177
3	1276	100.568448390677	178
3	1276	100.568448390677	179
3	1297	101.630793881903	180
3	1297	101.630793881903	181
3	1297	101.630793881903	182
3	1329	104.6230754121	183
3	1329	104.6230754121	184
3	1329	104.6230754121	185
3	1355	106.19953780638	186
3	1355	106.19953780638	187
3	1355	106.19953780638	188
3	1369	107.561829412152	189
3	1369	107.561829412152	190
3	1369	107.561829412152	191
3	1395	109.067240480007	192
3	1395	109.067240480007	193
3	1395	109.067240480007	194
3	1412	110.968120643905	195
3	1412	110.968120643905	196
3	1412	110.968120643905	197
3	1431	112.259235048962	198
3	1431	112.259235048962	199
3	1431	112.259235048962	200
3	1455	114.199469829994	201
3	1455	114.199469829994	202
3	1455	114.199469829994	203
3	1474	116.041262510138	204
3	1474	116.041262510138	205
3	1474	116.041262510138	206
3	1497	117.989813606794	207
3	1497	117.989813606794	208
3	1497	117.989813606794	209
3	1520	119.003586804242	210
3	1520	119.003586804242	211
3	1520	119.003586804242	212
3	1542	120.694416226419	213
3	1542	120.694416226419	214
3	1542	120.694416226419	215
3	1552	122.48906691842	216
3	1552	122.48906691842	217
3	1552	122.48906691842	218
3	1577	123.894102244691	219
3	1577	123.894102244691	220
3	1577	123.894102244691	221
3	1599	125.319462971148	222
3	1599	125.319462971148	223
3	1599	125.319462971148	224
3	1623	126.597735871591	225
3	1623	126.597735871591	226
3	1623	126.597735871591	227
3	1643	128.019511853356	228
3	1643	128.019511853356	229
3	1643	128.019511853356	230
3	1659	129.591345183366	231
3	1659	129.591345183366	232
3	1659	129.591345183366	233
3	1684	131.13354402449	234
3	1684	131.13354402449	235
3	1684	131.13354402449	236
3	1704	132.594587189489	237
3	1704	132.594587189489	238
3	1704	132.594587189489	239
3	1721	134.107974357118	240
3	1721	134.107974357118	241
3	1721	134.107974357118	242
3	1748	135.12109919656	243
3	1748	135.12109919656	244
3	1748	135.12109919656	245
3	1777	136.611525948808	246
3	1777	136.611525948808	247
3	1777	136.611525948808	248
3	1791	137.700930716138	249
3	1791	137.700930716138	250
3	1791	137.700930716138	251
3	1809	138.700552565434	252
3	1809	138.700552565434	253
3	1809	138.700552565434	254
3	1836	140.1892695659	255
3	1836	140.1892695659	256
3	1836	140.1892695659	257
3	1852	142.081518687316	258
3	1852	142.081518687316	259
3	1852	142.081518687316	260
3	1874	143.785371476595	261
3	1874	143.785371476595	262
3	1874	143.785371476595	263
3	1900	145.292692611361	264
3	1900	145.292692611361	265
3	1900	145.292692611361	266
3	1922	147.074954848877	267
3	1922	147.074954848877	268
3	1922	147.074954848877	269
3	1940	148.078961232694	270
3	1940	148.078961232694	271
3	1940	148.078961232694	272
3	1962	149.155767445588	273
3	1962	149.155767445588	274
3	1962	149.155767445588	275
3	1981	150.550930050311	276
3	1981	150.550930050311	277
3	1981	150.550930050311	278
3	2003	152.073523390675	279
3	2003	152.073523390675	280
3	2003	152.073523390675	281
3	2027	153.753405691136	282
3	2027	153.753405691136	283
3	2027	153.753405691136	284
3	2045	154.780679496631	285
3	2045	154.780679496631	286
3	2045	154.780679496631	287
3	2075	157.679252667207	288
3	2075	157.679252667207	289
3	2075	157.679252667207	290
3	2089	158.802062037017	291
3	2089	158.802062037017	292
3	2089	158.802062037017	293
3	2115	160.09820541312	294
3	2115	160.09820541312	295
3	2115	160.09820541312	296
3	2140	161.96582323317	297
3	2140	161.96582323317	298
3	2140	161.96582323317	299
3	2169	163.514069237339	300
3	2169	163.514069237339	301
3	2169	163.514069237339	302
3	2187	164.571351653027	303
3	2187	164.571351653027	304
3	2187	164.571351653027	305
3	2210	166.022064228401	306
3	2210	166.022064228401	307
3	2210	166.022064228401	308
3	2230	167.789317030003	309
3	2230	167.789317030003	310
3	2230	167.789317030003	311
3	2252	169.509249591486	312
3	2252	169.509249591486	313
3	2252	169.509249591486	314
3	2281	171.096260198588	315
3	2281	171.096260198588	316
3	2281	171.096260198588	317
3	2303	172.519211057594	318
3	2303	172.519211057594	319
3	2303	172.519211057594	320
3	2325	174.024222585716	321
3	2325	174.024222585716	322
3	2325	174.024222585716	323
3	2351	175.803891158353	324
3	2351	175.803891158353	325
3	2351	175.803891158353	326
3	2372	177.033497154567	327
3	2372	177.033497154567	328
3	2372	177.033497154567	329
3	2394	178.406697045123	330
3	2394	178.406697045123	331
3	2394	178.406697045123	332
3	2418	180.178130094599	333
3	2418	180.178130094599	334
3	2418	180.178130094599	335
3	2440	181.494052461084	336
3	2440	181.494052461084	337
3	2440	181.494052461084	338
3	2465	183.496065721835	339
3	2465	183.496065721835	340
3	2465	183.496065721835	341
3	2490	186.21630940947	342
3	2490	186.21630940947	343
3	2490	186.21630940947	344
3	2510	187.445937237219	345
3	2510	187.445937237219	346
3	2510	187.445937237219	347
3	2531	189.384381495016	348
3	2531	189.384381495016	349
3	2531	189.384381495016	350
3	2556	191.148479418224	351
3	2556	191.148479418224	352
3	2556	191.148479418224	353
3	2573	192.980336238235	354
3	2573	192.980336238235	355
3	2573	192.980336238235	356
3	2595	194.877296412852	357
3	2595	194.877296412852	358
3	2595	194.877296412852	359
3	2610	196.252285486578	360
3	2610	196.252285486578	361
3	2610	196.252285486578	362
3	2633	197.528413065307	363
3	2633	197.528413065307	364
3	2633	197.528413065307	365
3	2654	199.212451719948	366
3	2654	199.212451719948	367
3	2654	199.212451719948	368
3	2683	200.881400625675	369
3	2683	200.881400625675	370
3	2683	200.881400625675	371
3	2704	202.437842040309	372
3	2704	202.437842040309	373
3	2704	202.437842040309	374
3	2725	204.406391094678	375
3	2725	204.406391094678	376
3	2725	204.406391094678	377
3	2754	205.824300343318	378
3	2754	205.824300343318	379
3	2754	205.824300343318	380
3	2773	206.908071997216	381
3	2773	206.908071997216	382
3	2773	206.908071997216	383
3	2808	210.05567205486	384
3	2808	210.05567205486	385
3	2808	210.05567205486	386
3	2833	211.9525047247	387
3	2833	211.9525047247	388
3	2833	211.9525047247	389
3	2853	213.84006106172	390
3	2853	213.84006106172	391
3	2853	213.84006106172	392
3	2877	215.241520780018	393
3	2877	215.241520780018	394
3	2877	215.241520780018	395
3	2902	216.661083068896	396
3	2902	216.661083068896	397
3	2902	216.661083068896	398
3	2917	218.209647241902	399
3	2917	218.209647241902	400
3	2917	218.209647241902	401
3	2935	219.381272416701	402
3	2935	219.381272416701	403
3	2935	219.381272416701	404
3	2957	220.641474187243	405
3	2957	220.641474187243	406
3	2957	220.641474187243	407
3	2970	223.267703631143	408
3	2970	223.267703631143	409
3	2970	223.267703631143	410
3	2999	225.206597420657	411
3	2999	225.206597420657	412
3	2999	225.206597420657	413
3	3020	226.49199402937	414
3	3020	226.49199402937	415
3	3020	226.49199402937	416
3	3043	228.281649813288	417
3	3043	228.281649813288	418
3	3043	228.281649813288	419
3	3064	230.21241023608	420
3	3064	230.21241023608	421
3	3064	230.21241023608	422
3	3091	231.243332384835	423
3	3091	231.243332384835	424
3	3091	231.243332384835	425
3	3115	232.319252546086	426
3	3115	232.319252546086	427
3	3115	232.319252546086	428
3	3134	233.515198889668	429
3	3134	233.515198889668	430
3	3134	233.515198889668	431
3	3152	234.676940366678	432
3	3152	234.676940366678	433
3	3152	234.676940366678	434
3	3176	236.203611846159	435
3	3176	236.203611846159	436
3	3176	236.203611846159	437
3	3194	237.358560808515	438
3	3194	237.358560808515	439
3	3194	237.358560808515	440
3	3224	238.971657510911	441
3	3224	238.971657510911	442
3	3224	238.971657510911	443
4	16	0.226769034413	0
4	16	0.226769034413	1
4	23	2.103853884743	2
4	23	2.103853884743	3
4	40	3.958861582968	4
4	40	3.958861582968	5
4	62	5.887324087909	6
4	62	5.887324087909	7
4	81	7.563192554087	8
4	81	7.563192554087	9
4	106	10.493013511611	10
4	106	10.493013511611	11
4	127	12.16927519711	12
4	127	12.16927519711	13
4	152	13.889405782574	14
4	152	13.889405782574	15
4	171	15.415562711027	16
4	171	15.415562711027	17
4	185	17.169210526587	18
4	185	17.169210526587	19
4	205	18.964117919362	20
4	205	18.964117919362	21
4	227	20.48507226838	22
4	227	20.48507226838	23
4	259	22.255423126739	24
4	259	22.255423126739	25
4	265	23.250089793441	26
4	265	23.250089793441	27
4	290	26.280552222382	28
4	290	26.280552222382	29
4	337	31.028276074705	30
4	337	31.028276074705	31
4	370	32.529751186998	32
4	370	32.529751186998	33
4	388	33.742781522108	34
4	388	33.742781522108	35
4	412	35.454251784368	36
4	412	35.454251784368	37
4	437	36.748670691828	38
4	437	36.748670691828	39
4	462	38.700740465303	40
4	462	38.700740465303	41
4	484	40.670066749859	42
4	484	40.670066749859	43
4	499	41.906086266097	44
4	499	41.906086266097	45
4	523	42.947567233731	46
4	523	42.947567233731	47
4	541	44.704803264952	48
4	541	44.704803264952	49
4	566	46.108194835173	50
4	566	46.108194835173	51
4	588	47.900234858231	52
4	588	47.900234858231	53
4	612	50.533093799068	54
4	612	50.533093799068	55
4	630	52.055857045938	56
4	630	52.055857045938	57
4	641	53.491476970588	58
4	641	53.491476970588	59
4	662	55.176833732209	60
4	662	55.176833732209	61
4	687	56.674310133987	62
4	687	56.674310133987	63
4	712	58.50686544213	64
4	712	58.50686544213	65
4	734	60.182776628035	66
4	734	60.182776628035	67
4	757	61.381755874901	68
4	757	61.381755874901	69
4	774	63.182543088948	70
4	774	63.182543088948	71
4	822	66.348246500524	72
4	822	66.348246500524	73
4	846	67.767510489531	74
4	846	67.767510489531	75
4	856	69.375210696225	76
4	856	69.375210696225	77
4	881	71.329118670625	78
4	881	71.329118670625	79
4	907	72.478280223244	80
4	907	72.478280223244	81
4	928	73.651096254514	82
4	928	73.651096254514	83
4	972	76.722738563632	84
4	972	76.722738563632	85
4	994	78.60378757027	86
4	994	78.60378757027	87
4	1030	82.331628081952	88
4	1030	82.331628081952	89
4	1036	83.749737586938	90
4	1036	83.749737586938	91
4	1061	84.921173608072	92
4	1061	84.921173608072	93
4	1083	86.303570983308	94
4	1083	86.303570983308	95
4	1105	87.789761792457	96
4	1105	87.789761792457	97
4	1141	89.484947970098	98
4	1141	89.484947970098	99
4	1148	91.365814887326	100
4	1148	91.365814887326	101
4	1168	93.188052337248	102
4	1168	93.188052337248	103
4	1190	94.437103080412	104
4	1190	94.437103080412	105
4	1211	95.629903250664	106
4	1211	95.629903250664	107
4	1234	96.827368750018	108
4	1234	96.827368750018	109
4	1252	98.81033507848	110
4	1252	98.81033507848	111
4	1273	100.557589258908	112
4	1273	100.557589258908	113
4	1294	101.612387747646	114
4	1294	101.612387747646	115
4	1322	104.605066146467	116
4	1322	104.605066146467	117
4	1359	106.229049845004	118
4	1359	106.229049845004	119
4	1378	107.58391052172	120
4	1378	107.58391052172	121
4	1387	109.052832864465	122
4	1387	109.052832864465	123
4	1405	110.951880084521	124
4	1405	110.951880084521	125
4	1427	112.250361138483	126
4	1427	112.250361138483	127
4	1448	114.170961112969	128
4	1448	114.170961112969	129
4	1475	116.042514024272	130
4	1475	116.042514024272	131
4	1493	117.98156909108	132
4	1493	117.98156909108	133
4	1517	118.991485127013	134
4	1517	118.991485127013	135
4	1539	120.672516703563	136
4	1539	120.672516703563	137
4	1549	122.475183493537	138
4	1549	122.475183493537	139
4	1570	123.87443727376	140
4	1570	123.87443727376	141
4	1591	125.289727053422	142
4	1591	125.289727053422	143
4	1616	126.559821674794	144
4	1616	126.559821674794	145
4	1639	128.010254457743	146
4	1639	128.010254457743	147
4	1653	129.579739890915	148
4	1653	129.579739890915	149
4	1678	131.113967063365	150
4	1678	131.113967063365	151
4	1718	134.089734364002	152
4	1718	134.089734364002	153
4	1756	135.134448664863	154
4	1756	135.134448664863	155
4	1784	137.652065527145	156
4	1784	137.652065527145	157
4	1806	138.689882197599	158
4	1806	138.689882197599	159
4	1832	140.183144640337	160
4	1832	140.183144640337	161
4	1849	142.049803297211	162
4	1849	142.049803297211	163
4	1871	143.773773546265	164
4	1871	143.773773546265	165
4	1893	145.278569492362	166
4	1893	145.278569492362	167
4	1912	147.054451322481	168
4	1912	147.054451322481	169
4	1933	148.064772761323	170
4	1933	148.064772761323	171
4	1954	149.134637417129	172
4	1954	149.134637417129	173
4	1980	150.547989396521	174
4	1980	150.547989396521	175
4	2002	152.067959970603	176
4	2002	152.067959970603	177
4	2019	153.732960467481	178
4	2019	153.732960467481	179
4	2041	154.771410167661	180
4	2041	154.771410167661	181
4	2062	156.577479463702	182
4	2062	156.577479463702	183
4	2068	157.662844995378	184
4	2068	157.662844995378	185
4	2086	158.754299870321	186
4	2086	158.754299870321	187
4	2111	160.088083889578	188
4	2111	160.088083889578	189
4	2134	161.95271858982	190
4	2134	161.95271858982	191
4	2158	163.482548641066	192
4	2158	163.482548641066	193
4	2181	164.558288286453	194
4	2181	164.558288286453	195
4	2206	166.013994687869	196
4	2206	166.013994687869	197
4	2227	167.770405349299	198
4	2227	167.770405349299	199
4	2249	169.492174707756	200
4	2249	169.492174707756	201
4	2274	171.072331422648	202
4	2274	171.072331422648	203
4	2296	172.494906402147	204
4	2296	172.494906402147	205
4	2343	175.769635798022	206
4	2343	175.769635798022	207
4	2368	177.003021941329	208
4	2368	177.003021941329	209
4	2390	178.395055659489	210
4	2390	178.395055659489	211
4	2415	180.149363003201	212
4	2415	180.149363003201	213
4	2437	181.48294103476	214
4	2437	181.48294103476	215
4	2462	183.483816340066	216
4	2462	183.483816340066	217
4	2484	186.205627052046	218
4	2484	186.205627052046	219
4	2506	187.437740437411	220
4	2506	187.437740437411	221
4	2539	189.402388357	222
4	2539	189.402388357	223
4	2548	191.102051147644	224
4	2548	191.102051147644	225
4	2570	192.968413773633	226
4	2570	192.968413773633	227
4	2589	194.864960480301	228
4	2589	194.864960480301	229
4	2606	196.237293666627	230
4	2606	196.237293666627	231
4	2641	197.550470578347	232
4	2641	197.550470578347	233
4	2659	199.223390769252	234
4	2659	199.223390769252	235
4	2675	200.861506600187	236
4	2675	200.861506600187	237
4	2698	202.425909659942	238
4	2698	202.425909659942	239
4	2722	204.39315031067	240
4	2722	204.39315031067	241
4	2747	205.811817121478	242
4	2747	205.811817121478	243
4	2777	206.918365937103	244
4	2777	206.918365937103	245
4	2801	210.037081075484	246
4	2801	210.037081075484	247
4	2827	211.929469563106	248
4	2827	211.929469563106	249
4	2854	213.843706908602	250
4	2854	213.843706908602	251
4	2873	215.230518237307	252
4	2873	215.230518237307	253
4	2909	218.179968264447	254
4	2909	218.179968264447	255
4	2950	220.624619937446	256
4	2950	220.624619937446	257
4	2967	223.255653289406	258
4	2967	223.255653289406	259
4	2993	225.194610198919	260
4	2993	225.194610198919	261
4	3017	226.479247394819	262
4	3017	226.479247394819	263
4	3039	228.261647667018	264
4	3039	228.261647667018	265
4	3061	230.198529344362	266
4	3061	230.198529344362	267
4	3083	231.21011281637	268
4	3083	231.21011281637	269
4	3108	232.301092043827	270
4	3108	232.301092043827	271
4	3142	233.533903351673	272
4	3142	233.533903351673	273
4	3158	234.68808117202	274
4	3158	234.68808117202	275
4	3173	236.161022017665	276
4	3173	236.161022017665	277
4	3191	237.345622455527	278
4	3191	237.345622455527	279
4	3218	238.959803678333	280
4	3218	238.959803678333	281
5	52	4.01600096579	0
5	52	4.01600096579	1
5	52	4.01600096579	2
5	116	10.52998419304	3
5	116	10.52998419304	4
5	116	10.52998419304	5
5	142	12.211205800577	6
5	142	12.211205800577	7
5	142	12.211205800577	8
5	277	23.287449461279	9
5	277	23.287449461279	10
5	277	23.287449461279	11
5	297	26.31025827428	12
5	297	26.31025827428	13
5	297	26.31025827428	14
5	327	28.283046054597	15
5	327	28.283046054597	16
5	327	28.283046054597	17
5	353	31.062067039249	18
5	353	31.062067039249	19
5	353	31.062067039249	20
5	371	32.530295824832	21
5	371	32.530295824832	22
5	371	32.530295824832	23
5	398	33.795113639179	24
5	398	33.795113639179	25
5	398	33.795113639179	26
5	430	35.507358594775	27
5	430	35.507358594775	28
5	430	35.507358594775	29
5	455	36.81295848421	30
5	455	36.81295848421	31
5	455	36.81295848421	32
5	477	38.733106507748	33
5	477	38.733106507748	34
5	477	38.733106507748	35
5	510	41.929659380582	36
5	510	41.929659380582	37
5	510	41.929659380582	38
5	548	44.739995562139	39
5	548	44.739995562139	40
5	548	44.739995562139	41
5	581	46.157387967309	42
5	581	46.157387967309	43
5	581	46.157387967309	44
5	655	53.524402252388	45
5	655	53.524402252388	46
5	655	53.524402252388	47
5	669	55.197554621787	48
5	669	55.197554621787	49
5	669	55.197554621787	50
5	702	56.721356071587	51
5	702	56.721356071587	52
5	702	56.721356071587	53
5	727	58.547431790294	54
5	727	58.547431790294	55
5	727	58.547431790294	56
5	741	60.204497517859	57
5	741	60.204497517859	58
5	741	60.204497517859	59
5	786	63.225671186472	60
5	786	63.225671186472	61
5	786	63.225671186472	62
5	814	64.874247121763	63
5	814	64.874247121763	64
5	814	64.874247121763	65
5	836	66.367511911272	66
5	836	66.367511911272	67
5	836	66.367511911272	68
5	863	69.407735152113	69
5	863	69.407735152113	70
5	863	69.407735152113	71
5	892	71.357387266428	72
5	892	71.357387266428	73
5	892	71.357387266428	74
5	915	72.500949965938	75
5	915	72.500949965938	76
5	915	72.500949965938	77
5	940	73.704514890561	78
5	940	73.704514890561	79
5	940	73.704514890561	80
5	959	75.538832590892	81
5	959	75.538832590892	82
5	959	75.538832590892	83
5	987	76.756896160296	84
5	987	76.756896160296	85
5	987	76.756896160296	86
5	1052	83.81233025641	87
5	1052	83.81233025641	88
5	1052	83.81233025641	89
5	1068	84.948364152254	90
5	1068	84.948364152254	91
5	1068	84.948364152254	92
5	1119	87.8232557191	93
5	1119	87.8232557191	94
5	1119	87.8232557191	95
5	1179	93.230516999663	96
5	1179	93.230516999663	97
5	1179	93.230516999663	98
5	1223	95.65725432631	99
5	1223	95.65725432631	100
5	1223	95.65725432631	101
5	1262	98.831640499232	102
5	1262	98.831640499232	103
5	1262	98.831640499232	104
5	1301	101.641937505751	105
5	1301	101.641937505751	106
5	1301	101.641937505751	107
5	1334	104.635017924825	108
5	1334	104.635017924825	109
5	1334	104.635017924825	110
5	1374	107.580932447154	111
5	1374	107.580932447154	112
5	1374	107.580932447154	113
5	1438	112.270648852752	114
5	1438	112.270648852752	115
5	1438	112.270648852752	116
5	1463	114.216765038549	117
5	1463	114.216765038549	118
5	1463	114.216765038549	119
5	1485	116.096675133863	120
5	1485	116.096675133863	121
5	1485	116.096675133863	122
5	1508	118.026103546499	123
5	1508	118.026103546499	124
5	1508	118.026103546499	125
5	1532	119.081252144621	126
5	1532	119.081252144621	127
5	1532	119.081252144621	128
5	1607	125.33553423857	129
5	1607	125.33553423857	130
5	1607	125.33553423857	131
5	1628	126.622865532572	132
5	1628	126.622865532572	133
5	1628	126.622865532572	134
5	1668	129.610863764819	135
5	1668	129.610863764819	136
5	1668	129.610863764819	137
5	1692	131.154729508669	138
5	1692	131.154729508669	139
5	1692	131.154729508669	140
5	1711	132.645213339148	141
5	1711	132.645213339148	142
5	1711	132.645213339148	143
5	1725	134.127119025135	144
5	1725	134.127119025135	145
5	1725	134.127119025135	146
5	1749	135.124103758826	147
5	1749	135.124103758826	148
5	1749	135.124103758826	149
5	1771	136.598088813099	150
5	1771	136.598088813099	151
5	1771	136.598088813099	152
5	1799	137.732924783585	153
5	1799	137.732924783585	154
5	1799	137.732924783585	155
5	1813	138.71115391597	156
5	1813	138.71115391597	157
5	1813	138.71115391597	158
5	1864	142.12002665076	159
5	1864	142.12002665076	160
5	1864	142.12002665076	161
5	1879	143.809905167878	162
5	1879	143.809905167878	163
5	1879	143.809905167878	164
5	1926	147.104095769961	165
5	1926	147.104095769961	166
5	1926	147.104095769961	167
5	1990	150.564635930356	168
5	1990	150.564635930356	169
5	1990	150.564635930356	170
5	2009	152.079491190613	171
5	2009	152.079491190613	172
5	2009	152.079491190613	173
5	2055	154.822694228833	174
5	2055	154.822694228833	175
5	2055	154.822694228833	176
5	2093	158.816291120831	177
5	2093	158.816291120831	178
5	2093	158.816291120831	179
5	2126	160.132455795377	180
5	2126	160.132455795377	181
5	2126	160.132455795377	182
5	2149	161.996381788776	183
5	2149	161.996381788776	184
5	2149	161.996381788776	185
5	2170	163.51796166657	186
5	2170	163.51796166657	187
5	2170	163.51796166657	188
5	2192	164.581961657821	189
5	2192	164.581961657821	190
5	2192	164.581961657821	191
5	2220	166.045314017574	192
5	2220	166.045314017574	193
5	2220	166.045314017574	194
5	2242	167.820022161091	195
5	2242	167.820022161091	196
5	2242	167.820022161091	197
5	2260	169.545987796433	198
5	2260	169.545987796433	199
5	2260	169.545987796433	200
5	2289	171.117422035853	201
5	2289	171.117422035853	202
5	2289	171.117422035853	203
5	2307	172.531155147427	204
5	2307	172.531155147427	205
5	2307	172.531155147427	206
5	2334	174.051412128496	207
5	2334	174.051412128496	208
5	2334	174.051412128496	209
5	2359	175.829180835496	210
5	2359	175.829180835496	211
5	2359	175.829180835496	212
5	2383	177.066445402225	213
5	2383	177.066445402225	214
5	2383	177.066445402225	215
5	2401	178.426592102343	216
5	2401	178.426592102343	217
5	2401	178.426592102343	218
5	2430	180.227484070702	219
5	2430	180.227484070702	220
5	2430	180.227484070702	221
5	2445	181.509795368053	222
5	2445	181.509795368053	223
5	2445	181.509795368053	224
5	2498	186.265450889596	225
5	2498	186.265450889596	226
5	2498	186.265450889596	227
5	2517	187.461916076882	228
5	2517	187.461916076882	229
5	2517	187.461916076882	230
5	2563	191.170041934949	231
5	2563	191.170041934949	232
5	2563	191.170041934949	233
5	2621	196.273963665101	234
5	2621	196.273963665101	235
5	2621	196.273963665101	236
5	2640	197.541491181037	237
5	2640	197.541491181037	238
5	2640	197.541491181037	239
5	2660	199.224818706793	240
5	2660	199.224818706793	241
5	2660	199.224818706793	242
5	2690	200.918848223935	243
5	2690	200.918848223935	244
5	2690	200.918848223935	245
5	2715	202.465162309453	246
5	2715	202.465162309453	247
5	2715	202.465162309453	248
5	2740	204.468425661203	249
5	2740	204.468425661203	250
5	2740	204.468425661203	251
5	2780	206.939672605173	252
5	2780	206.939672605173	253
5	2780	206.939672605173	254
5	2817	210.078818763973	255
5	2817	210.078818763973	256
5	2817	210.078818763973	257
5	2837	211.963097804319	258
5	2837	211.963097804319	259
5	2837	211.963097804319	260
5	2866	213.874519215592	261
5	2866	213.874519215592	262
5	2866	213.874519215592	263
5	2885	215.259349360592	264
5	2885	215.259349360592	265
5	2885	215.259349360592	266
5	2924	218.220049873587	267
5	2924	218.220049873587	268
5	2924	218.220049873587	269
5	2943	219.408223823378	270
5	2943	219.408223823378	271
5	2943	219.408223823378	272
5	2974	223.284738641889	273
5	2974	223.284738641889	274
5	2974	223.284738641889	275
5	3007	225.244912141532	276
5	3007	225.244912141532	277
5	3007	225.244912141532	278
5	3024	226.502955853226	279
5	3024	226.502955853226	280
5	3024	226.502955853226	281
5	3050	228.299218395667	282
5	3050	228.299218395667	283
5	3050	228.299218395667	284
5	3076	230.261938739999	285
5	3076	230.261938739999	286
5	3076	230.261938739999	287
5	3095	231.246412722195	288
5	3095	231.246412722195	289
5	3095	231.246412722195	290
5	3123	232.346767384501	291
5	3123	232.346767384501	292
5	3123	232.346767384501	293
5	3157	234.687820846325	294
5	3157	234.687820846325	295
5	3157	234.687820846325	296
5	3198	237.3802820212	297
5	3198	237.3802820212	298
5	3198	237.3802820212	299
5	3225	238.974623736804	300
5	3225	238.974623736804	301
5	3225	238.974623736804	302
6	58	4.02600096579	0
6	146	12.221205800577	1
6	301	26.32025827428	2
6	326	28.251623636027	3
6	376	32.540295824832	4
6	458	36.82295848421	5
6	562	44.781862265409	6
6	672	55.207554621787	7
6	795	63.236913569087	8
6	810	64.866594788696	9
6	867	69.417735152113	10
6	922	72.510949965938	11
6	990	76.766896160296	12
6	1011	78.649487659517	13
6	1057	83.82233025641	14
6	1315	101.695923868806	15
6	1510	118.027062651428	16
6	1566	122.537203763026	17
6	1670	129.615263379003	18
6	1673	129.620863764819	19
6	1802	137.742924783585	20
6	1885	143.819905167878	21
6	2058	154.832694228833	22
6	2405	178.436592102343	23
6	2458	181.556505075963	24
6	2644	197.551491181037	25
6	2718	202.475162309453	26
6	2739	204.465047344069	27
6	2841	211.973097804319	28
6	2865	213.862854498427	29
6	2869	213.884519215592	30
6	2977	223.294738641889	31
6	2988	223.321942017884	32
6	3102	231.256412722195	33
6	3126	232.356767384501	34
7	143	12.211310670264	0
7	143	12.211310670264	1
7	199	17.191774311437	2
7	199	17.191774311437	3
7	220	19.050267969739	4
7	220	19.050267969739	5
7	241	20.522296847198	6
7	241	20.522296847198	7
7	321	28.241623636027	8
7	321	28.241623636027	9
7	352	31.058770253244	10
7	352	31.058770253244	11
7	381	32.561945532764	12
7	381	32.561945532764	13
7	406	33.845186596914	14
7	406	33.845186596914	15
7	423	35.481212357776	16
7	423	35.481212357776	17
7	452	36.794676469778	18
7	452	36.794676469778	19
7	509	41.929025429578	20
7	509	41.929025429578	21
7	560	44.771862265409	22
7	560	44.771862265409	23
7	603	47.988251607504	24
7	603	47.988251607504	25
7	678	55.225816125216	26
7	678	55.225816125216	27
7	706	56.752655220092	28
7	706	56.752655220092	29
7	790	63.226913569087	30
7	790	63.226913569087	31
7	807	64.856594788696	32
7	807	64.856594788696	33
7	840	66.382863248143	34
7	840	66.382863248143	35
7	875	69.43453742001	36
7	875	69.43453742001	37
7	916	72.503197964984	38
7	916	72.503197964984	39
7	966	75.558684415902	40
7	966	75.558684415902	41
7	1009	78.639487659517	42
7	1009	78.639487659517	43
7	1051	83.811677400452	44
7	1051	83.811677400452	45
7	1098	86.356834433602	46
7	1098	86.356834433602	47
7	1138	89.462411510771	48
7	1138	89.462411510771	49
7	1162	91.390693012633	50
7	1162	91.390693012633	51
7	1205	94.508770784939	52
7	1205	94.508770784939	53
7	1288	100.60404801413	54
7	1288	100.60404801413	55
7	1313	101.685923868806	56
7	1313	101.685923868806	57
7	1341	104.683393822309	58
7	1341	104.683393822309	59
7	1420	110.989526437779	60
7	1420	110.989526437779	61
7	1507	118.017062651428	62
7	1507	118.017062651428	63
7	1564	122.527203763026	64
7	1564	122.527203763026	65
7	1585	123.918317920978	66
7	1585	123.918317920978	67
7	1603	125.328769192443	68
7	1603	125.328769192443	69
7	1667	129.605263379003	70
7	1667	129.605263379003	71
7	1770	136.597322676764	72
7	1770	136.597322676764	73
7	1822	138.738448219363	74
7	1822	138.738448219363	75
7	1948	148.094443532426	76
7	1948	148.094443532426	77
7	1969	149.166342611297	78
7	1969	149.166342611297	79
7	2031	153.759496664578	80
7	2031	153.759496664578	81
7	2105	158.889615315279	82
7	2105	158.889615315279	83
7	2148	161.995763593173	84
7	2148	161.995763593173	85
7	2199	164.601913170125	86
7	2199	164.601913170125	87
7	2268	169.605052421806	88
7	2268	169.605052421806	89
7	2315	172.562306036093	90
7	2315	172.562306036093	91
7	2333	174.048995343691	92
7	2333	174.048995343691	93
7	2358	175.828299650271	94
7	2358	175.828299650271	95
7	2409	178.44032581658	96
7	2409	178.44032581658	97
7	2456	181.546505075963	98
7	2456	181.546505075963	99
7	2542	189.43463147433	100
7	2542	189.43463147433	101
7	2664	199.232783368653	102
7	2664	199.232783368653	103
7	2712	202.453905163064	104
7	2712	202.453905163064	105
7	2737	204.455047344069	106
7	2737	204.455047344069	107
7	2795	208.286339575453	108
7	2795	208.286339575453	109
7	2816	210.074108623448	110
7	2816	210.074108623448	111
7	2861	213.852854498427	112
7	2861	213.852854498427	113
7	2889	215.262977337974	114
7	2889	215.262977337974	115
7	2983	223.311942017884	116
7	2983	223.311942017884	117
7	3008	225.249989005652	118
7	3008	225.249989005652	119
7	3096	231.25026909568	120
7	3096	231.25026909568	121
7	3167	234.698599138614	122
7	3167	234.698599138614	123
7	3232	238.992693235712	124
7	3232	238.992693235712	125

