version 2
run General-2-20231004-17:43:06-7874
attr configname General
attr datetime 20231004-17:43:06
attr experiment General
attr inifile omnetpp.ini
attr iterationvars ""
attr iterationvarsf ""
attr measurement ""
attr network Multihop
attr processid 7874
attr repetition 2
attr replication #2
attr resultdir results
attr runnumber 2
attr seedset 2
param Multihop.node[*].transmissionTime "uniform(1s, 2s)"
param Multihop.node[*].delayTime "uniform(0.01s, 0.2s)"
param Multihop.node[*].processingTime exponential(0.01s)
param Multihop.node[*].lossProbability 0.25

vector 0 Multihop.node[0] txVector ETV
vector 1 Multihop.node[1] txVector ETV
vector 2 Multihop.node[2] txVector ETV
vector 3 Multihop.node[3] txVector ETV
vector 4 Multihop.node[4] txVector ETV
vector 5 Multihop.node[5] rxVector ETV
0	1	0.092839031499	0
0	3	1.277921112972	1
0	13	3.20946197656	2
0	23	4.908324665874	3
0	25	6.591350660911	4
0	29	8.089911828535	5
0	39	9.809666059465	6
0	43	11.779298467115	7
0	47	13.067167287013	8
0	49	14.248894324312	9
0	53	15.74318409224	10
0	55	16.965019259387	11
0	57	18.732510435879	12
0	63	20.309818506026	13
0	73	21.778492088448	14
0	77	23.76934408538	15
0	87	24.917908865744	16
0	97	26.233206346882	17
0	103	27.507379600331	18
0	111	29.455470023695	19
0	113	31.202101436695	20
0	115	32.633639206663	21
0	125	34.521942953132	22
0	127	36.002964708274	23
0	135	37.963278438216	24
0	145	39.895906999027	25
0	155	41.469549497375	26
0	163	42.825303121255	27
0	173	44.188629012573	28
0	179	45.600375453261	29
0	183	46.982068391768	30
0	189	48.629082617601	31
0	197	49.858468581708	32
0	203	51.390613022512	33
0	213	52.867456428725	34
0	223	54.083262826102	35
0	233	56.012402726822	36
0	235	57.908776603192	37
0	245	59.746607151134	38
0	247	61.682855194453	39
0	249	63.146597802425	40
0	253	64.998886762671	41
0	259	65.999010346848	42
0	261	67.513869514008	43
0	265	69.393859865162	44
0	275	70.923681041011	45
0	277	72.068891397928	46
0	279	73.574303033081	47
0	283	74.909397697327	48
0	287	76.12868767024	49
0	295	77.849035694282	50
0	297	79.661817645905	51
0	301	81.2076903491	52
0	303	82.223800614262	53
0	309	84.15883634218	54
0	311	85.978301717685	55
0	313	87.068672095676	56
0	319	88.42691240345	57
0	329	89.457280655409	58
0	335	91.449264904502	59
0	345	93.322392244608	60
0	347	95.057743638771	61
0	357	96.243333374866	62
0	367	98.091795377684	63
0	377	99.245361052471	64
0	379	100.410228194919	65
0	383	102.237681545334	66
0	389	103.591853967885	67
0	399	104.65958920705	68
0	405	106.518057547993	69
0	407	108.298359418771	70
0	417	109.724334168498	71
0	425	111.391661335499	72
0	429	112.81056864771	73
0	439	113.908116718307	74
0	443	114.982377526602	75
0	449	116.739382166201	76
0	451	118.00955992613	77
0	455	119.875740167936	78
0	465	121.631753175072	79
0	467	123.026967233996	80
0	477	124.62551361557	81
0	483	125.627054350934	82
0	493	127.591451249802	83
0	495	129.232567811636	84
0	501	130.455670426851	85
0	507	131.631315113064	86
0	513	133.022289375095	87
0	515	134.995840691282	88
0	517	136.238178194287	89
0	523	137.444796945453	90
0	527	139.296469219281	91
0	529	140.659763865192	92
0	539	141.996056836118	93
0	541	143.879578524754	94
0	545	145.042917794567	95
0	555	146.260825115974	96
0	565	147.73152011728	97
0	573	148.772766068364	98
0	579	149.980807685312	99
0	589	151.412940786006	100
0	597	152.612836967008	101
0	601	153.744116189675	102
0	605	154.958359068511	103
0	607	156.432251975425	104
0	615	158.006698317612	105
0	625	159.151118781437	106
0	635	160.381664394188	107
0	641	162.2495828632	108
0	643	163.697996323948	109
0	651	164.788464304312	110
0	657	166.534003119004	111
0	661	168.040774957762	112
0	663	169.294021794126	113
0	665	171.104794997974	114
0	669	172.874629187883	115
0	673	174.050926198271	116
0	683	175.389694834147	117
0	687	177.286099602953	118
0	697	179.11465476688	119
0	707	181.091199321924	120
0	713	182.093081979566	121
0	719	183.706713412675	122
0	721	184.992576824521	123
0	731	186.62384422172	124
0	733	187.655146227471	125
0	743	189.600020821692	126
0	751	191.320237467551	127
0	753	192.518237358445	128
0	763	193.720136861104	129
0	769	194.802016233347	130
0	771	196.261706529671	131
0	775	198.123682987896	132
0	785	199.423204256474	133
1	5	1.317434556699	0
1	15	3.220739748289	1
1	27	6.610188823215	2
1	31	8.102902603835	3
1	41	9.823190304505	4
1	45	11.790533636426	5
1	51	14.267236021481	6
1	59	18.744347540861	7
1	65	20.33043936715	8
1	75	21.789764569322	9
1	79	23.798468522204	10
1	89	24.930902811998	11
1	99	26.259211147864	12
1	105	27.534689140126	13
1	117	32.671974201999	14
1	129	36.018516359565	15
1	137	37.985699243937	16
1	147	39.910914651213	17
1	157	41.481943919459	18
1	165	42.842298937972	19
1	175	44.20859433577	20
1	181	45.643198822692	21
1	185	47.02373257091	22
1	191	48.660218975614	23
1	199	49.902979994089	24
1	205	51.406079940581	25
1	215	52.893918025556	26
1	225	54.131264687036	27
1	237	57.926465093219	28
1	251	63.158990117271	29
1	255	65.00986174732	30
1	263	67.539231013192	31
1	267	69.407059684851	32
1	281	73.586066771073	33
1	285	74.937508199864	34
1	289	76.139216280626	35
1	299	79.672002035847	36
1	305	82.238753183404	37
1	315	87.078863772271	38
1	321	88.440064360971	39
1	331	89.472999173313	40
1	337	91.465901832345	41
1	349	95.069160331591	42
1	359	96.256119498653	43
1	369	98.131112464701	44
1	381	100.427986915615	45
1	385	102.266133001211	46
1	391	103.611747454788	47
1	401	104.674396416842	48
1	409	108.312607398911	49
1	419	109.746130836844	50
1	427	111.402371991255	51
1	431	112.823134308845	52
1	441	113.922059689335	53
1	445	114.997640297901	54
1	453	118.05605626976	55
1	457	119.915194998052	56
1	469	123.038598148042	57
1	479	124.63593506423	58
1	485	125.639071674285	59
1	497	129.256440890909	60
1	503	130.468614328491	61
1	509	131.646202223708	62
1	519	136.253701780025	63
1	525	137.459115912201	64
1	531	140.674975629142	65
1	543	143.902600371104	66
1	547	145.070933823374	67
1	557	146.275380390203	68
1	567	147.744803868556	69
1	575	148.782995854175	70
1	581	149.994196774902	71
1	591	151.434680397897	72
1	599	152.651779357188	73
1	603	153.765492467982	74
1	609	156.44763588264	75
1	617	158.034822646368	76
1	627	159.184755155237	77
1	637	160.394133467891	78
1	645	163.715181195342	79
1	653	164.803009797501	80
1	659	166.549002045456	81
1	667	171.130677403402	82
1	671	172.893896155694	83
1	675	174.086314861101	84
1	685	175.416567005395	85
1	689	177.306666127345	86
1	699	179.131465139334	87
1	709	181.101732213214	88
1	715	182.110811657712	89
1	723	185.009100338648	90
1	735	187.680059346751	91
1	745	189.622434823275	92
1	755	192.551995308935	93
1	765	193.736859596148	94
1	773	196.274379590543	95
1	777	198.141334641086	96
1	787	199.444222075999	97
2	7	1.33406556975	0
2	17	3.237379048478	1
2	33	8.120803752129	2
2	61	18.758927838791	3
2	67	20.356194068358	4
2	81	23.815592349838	5
2	91	24.957466811948	6
2	101	26.286038678456	7
2	107	27.551928072909	8
2	119	32.688966101009	9
2	131	36.032415341852	10
2	139	38.00298555262	11
2	149	39.947025712304	12
2	159	41.496438518997	13
2	167	42.86688708352	14
2	177	44.222778495953	15
2	187	47.050001063513	16
2	193	48.679196029831	17
2	201	49.921535562018	18
2	207	51.425217379672	19
2	217	52.919923827566	20
2	227	54.16624080383	21
2	239	57.940341127787	22
2	257	65.021786877122	23
2	269	69.417327069388	24
2	291	76.15897860784	25
2	307	82.272905741245	26
2	317	87.094842628148	27
2	323	88.450090220122	28
2	333	89.487500044296	29
2	339	91.489522222692	30
2	351	95.079260551175	31
2	361	96.277514693214	32
2	371	98.144590235945	33
2	387	102.276456217601	34
2	393	103.631824486482	35
2	403	104.717858014508	36
2	411	108.33035493326	37
2	421	109.76034434142	38
2	433	112.852869113675	39
2	447	115.021766692917	40
2	459	119.927219646232	41
2	471	123.050515115594	42
2	481	124.651480040092	43
2	487	125.662738092147	44
2	499	129.27249368822	45
2	505	130.491547108545	46
2	511	131.669470610134	47
2	521	136.276357950921	48
2	533	140.685597656086	49
2	549	145.081994938654	50
2	559	146.320630240985	51
2	569	147.765786614988	52
2	577	148.79354559345	53
2	583	150.00689371937	54
2	593	151.447551482773	55
2	611	156.45906492625	56
2	619	158.050150234441	57
2	629	159.198500458523	58
2	639	160.416333838021	59
2	647	163.729139389553	60
2	655	164.826831428032	61
2	677	174.100509071491	62
2	691	177.331553271202	63
2	701	179.145300105856	64
2	711	181.12236875962	65
2	717	182.144064526051	66
2	725	185.030328039431	67
2	737	187.717250936894	68
2	747	189.635231236855	69
2	757	192.570667302572	70
2	767	193.759860964009	71
2	779	198.166740331219	72
3	9	1.34793008644	0
3	19	3.257395839035	1
3	35	8.136034553381	2
3	69	20.377072625707	3
3	83	23.828042023514	4
3	93	24.971831345782	5
3	109	27.564425491549	6
3	121	32.711074129668	7
3	133	36.056767247114	8
3	141	38.034567941473	9
3	151	39.957081310788	10
3	161	41.527500505509	11
3	169	42.901476615863	12
3	195	48.704621874584	13
3	209	51.436344280942	14
3	219	52.938010293975	15
3	229	54.176649140808	16
3	241	57.955403721641	17
3	271	69.447706888999	18
3	293	76.17235110275	19
3	325	88.465777344008	20
3	341	91.513553818619	21
3	353	95.093929293364	22
3	363	96.298820050116	23
3	373	98.167931071241	24
3	395	103.656509816552	25
3	413	108.345997441711	26
3	423	109.778919348725	27
3	435	112.866166105796	28
3	461	119.980885003128	29
3	473	123.062124744367	30
3	489	125.676888145935	31
3	535	140.696977008368	32
3	551	145.096543777949	33
3	561	146.338231338686	34
3	571	147.775973649158	35
3	585	150.029877590808	36
3	595	151.459094600714	37
3	613	156.47307951126	38
3	621	158.060452576759	39
3	631	159.214799115726	40
3	649	163.759186095791	41
3	679	174.120972456698	42
3	693	177.354350693235	43
3	703	179.165841099586	44
3	727	185.046881221902	45
3	739	187.72988639398	46
3	749	189.655491535863	47
3	759	192.585722468043	48
3	781	198.186942881141	49
4	11	1.359607490352	0
4	21	3.284445789976	1
4	37	8.147982357334	2
4	71	20.396566698876	3
4	85	23.888048316602	4
4	95	24.988139503432	5
4	123	32.733334337242	6
4	143	38.052634098377	7
4	153	39.980119187024	8
4	171	42.928984787812	9
4	211	51.450942557413	10
4	221	52.970562132784	11
4	231	54.199847560818	12
4	243	57.968653258955	13
4	273	69.460928766575	14
4	327	88.484624639709	15
4	343	91.527464755393	16
4	355	95.104037890126	17
4	365	96.330520489625	18
4	375	98.184384912791	19
4	397	103.672332829191	20
4	415	108.371259123636	21
4	437	112.877503917969	22
4	463	119.99129759681	23
4	475	123.072257998609	24
4	491	125.697417621401	25
4	537	140.714286018717	26
4	553	145.115437761643	27
4	563	146.353386286058	28
4	587	150.042161947691	29
4	623	158.089452473132	30
4	633	159.256914641628	31
4	681	174.133233444172	32
4	695	177.383746156227	33
4	705	179.176894315205	34
4	729	185.058628053007	35
4	741	187.740941311139	36
4	761	192.610898237614	37
4	783	198.211548784448	38
5	22	3.294445789976	0
5	72	20.406566698876	1
5	86	23.898048316602	2
5	96	24.998139503432	3
5	124	32.743334337242	4
5	144	38.062634098377	5
5	172	42.938984787812	6
5	222	52.980562132784	7
5	232	54.209847560818	8
5	274	69.470928766575	9
5	328	88.494624639709	10
5	356	95.114037890126	11
5	366	96.340520489625	12
5	398	103.682332829191	13
5	416	108.381259123636	14
5	438	112.887503917969	15
5	464	120.00129759681	16
5	476	123.082257998609	17
5	492	125.707417621401	18
5	538	140.724286018717	19
5	554	145.125437761643	20
5	564	146.363386286058	21
5	588	150.052161947691	22
5	624	158.099452473132	23
5	634	159.266914641628	24
5	696	177.393746156227	25
5	706	179.186894315205	26
5	730	185.068628053007	27
5	784	198.221548784448	28

