version 2
run General-1-20231004-17:43:06-7874
attr configname General
attr datetime 20231004-17:43:06
attr experiment General
attr inifile omnetpp.ini
attr iterationvars ""
attr iterationvarsf ""
attr measurement ""
attr network Multihop
attr processid 7874
attr repetition 1
attr replication #1
attr resultdir results
attr runnumber 1
attr seedset 1
param Multihop.node[*].transmissionTime "uniform(1s, 2s)"
param Multihop.node[*].delayTime "uniform(0.01s, 0.2s)"
param Multihop.node[*].processingTime exponential(0.01s)
param Multihop.node[*].lossProbability 0.25

vector 0 Multihop.node[0] txVector ETV
vector 1 Multihop.node[1] txVector ETV
vector 2 Multihop.node[2] txVector ETV
vector 3 Multihop.node[3] txVector ETV
vector 4 Multihop.node[4] txVector ETV
vector 5 Multihop.node[5] rxVector ETV
0	1	0.089234179703	0
0	5	2.086418987836	1
0	9	3.214543435608	2
0	11	4.450632411872	3
0	13	5.847213138013	4
0	23	7.23512387823	5
0	25	8.759672040936	6
0	29	10.203124934692	7
0	37	11.737538841903	8
0	39	13.676666636836	9
0	49	15.455055872329	10
0	53	17.320076117643	11
0	55	19.149679482334	12
0	57	20.422729459709	13
0	61	21.481972656796	14
0	71	23.075038173586	15
0	77	24.217158306507	16
0	87	25.251329616528	17
0	89	26.473454164924	18
0	99	27.54681833915	19
0	101	29.071617722163	20
0	105	30.155240727473	21
0	111	32.065689107288	22
0	115	33.63160113583	23
0	121	35.588136794629	24
0	129	37.121585287504	25
0	139	38.887070394704	26
0	143	40.770195866354	27
0	145	42.218176049298	28
0	151	44.110311917845	29
0	161	45.762610796025	30
0	171	47.452815385653	31
0	181	49.205603735872	32
0	191	50.992555209786	33
0	197	52.755475276966	34
0	207	54.52821442031	35
0	213	55.998855225394	36
0	221	57.267856275082	37
0	223	58.740331316485	38
0	229	60.483096143582	39
0	239	61.713458947723	40
0	241	62.885737304694	41
0	243	64.282050592943	42
0	245	65.389415901272	43
0	247	66.899226179464	44
0	257	68.001361411881	45
0	267	69.234983939562	46
0	271	71.047978911201	47
0	281	72.765370513197	48
0	283	74.193752922701	49
0	285	75.555657372229	50
0	287	76.708995856229	51
0	289	78.64618618216	52
0	291	80.562596055331	53
0	293	82.344554518001	54
0	299	83.960883460823	55
0	301	85.090653073625	56
0	307	86.385012545507	57
0	313	87.458981543431	58
0	321	89.397693241365	59
0	329	90.696373484215	60
0	331	92.455722283457	61
0	333	94.106842848823	62
0	343	95.146526350758	63
0	353	96.255862414489	64
0	357	97.718014929329	65
0	363	99.482256541845	66
0	367	100.57767578622	67
0	373	101.934139468126	68
0	383	103.865152396612	69
0	393	105.593164036866	70
0	395	107.019974880736	71
0	405	108.748532277416	72
0	415	109.756534988178	73
0	425	111.208536594758	74
0	427	112.56311382854	75
0	429	113.64163379802	76
0	433	115.334818996141	77
0	439	116.794364276925	78
0	441	118.26644770254	79
0	445	119.371838952765	80
0	455	121.257528813673	81
0	465	122.499017950032	82
0	473	124.076085582959	83
0	483	126.02891670738	84
0	487	127.844016764663	85
0	493	129.035277034739	86
0	501	130.051150014508	87
0	511	131.918667469291	88
0	521	133.128160350142	89
0	531	134.202884242987	90
0	541	135.467087547179	91
0	551	136.998755653739	92
0	553	138.683443561779	93
0	563	139.957343886723	94
0	573	141.739435906406	95
0	583	143.59931947582	96
0	591	144.618638227345	97
0	595	146.391488658148	98
0	599	147.62969957327	99
0	609	148.910916464752	100
0	615	150.433203032822	101
0	625	152.28022531548	102
0	627	153.498908218811	103
0	629	154.939736540778	104
0	635	156.420014723786	105
0	637	157.925478654564	106
0	645	159.598625933635	107
0	647	160.917849725694	108
0	653	162.808366844081	109
0	661	164.008575839339	110
0	665	165.996640517026	111
0	671	167.044940529041	112
0	681	168.355268367216	113
0	689	169.979898847289	114
0	699	171.027217076275	115
0	709	172.61257628945	116
0	719	174.284910848945	117
0	723	175.731010354472	118
0	733	177.090570658561	119
0	739	179.083397226058	120
0	743	180.541548104374	121
0	745	182.075482437736	122
0	749	183.652761884383	123
0	759	184.966908409842	124
0	767	186.808318471885	125
0	769	188.084164371597	126
0	777	189.309554847539	127
0	781	191.189407952246	128
0	787	192.914388073259	129
0	797	194.118062401772	130
0	805	196.021664268686	131
0	813	197.585873013944	132
0	817	199.091599234729	133
1	3	0.126198958082	0
1	7	2.165910130709	1
1	15	5.868292071471	2
1	27	8.772280199435	3
1	31	10.237654599494	4
1	41	13.699253408948	5
1	51	15.482725384515	6
1	59	20.443832100018	7
1	63	21.503109533074	8
1	73	23.100331255173	9
1	79	24.236940765323	10
1	91	26.489788590503	11
1	103	29.10649017611	12
1	107	30.16879220445	13
1	113	32.08520668854	14
1	117	33.644625424995	15
1	123	35.628081751731	16
1	131	37.132049347702	17
1	141	38.904852831896	18
1	147	42.232917520839	19
1	153	44.124794511799	20
1	163	45.783044920155	21
1	173	47.484130469971	22
1	183	49.216265853228	23
1	193	51.017321558685	24
1	199	52.767134994301	25
1	209	54.552678795544	26
1	215	56.026674856863	27
1	225	58.752462705091	28
1	231	60.500193941724	29
1	249	66.912633040145	30
1	259	68.012321637059	31
1	269	69.248405462965	32
1	273	71.067470875815	33
1	295	82.354921151991	34
1	303	85.105128683306	35
1	309	86.39666290949	36
1	315	87.473619912582	37
1	323	89.409979302356	38
1	335	94.13365628987	39
1	345	95.158104975032	40
1	355	96.267281129808	41
1	359	97.730406816405	42
1	365	99.494026366332	43
1	369	100.588677391385	44
1	375	101.952733474587	45
1	385	103.882549264524	46
1	397	107.044094506231	47
1	407	108.784616685335	48
1	417	109.783055245751	49
1	431	113.651761739657	50
1	435	115.377342613165	51
1	443	118.283440882546	52
1	447	119.389482749849	53
1	457	121.267770553097	54
1	467	122.510370720996	55
1	475	124.088549618189	56
1	485	126.046767078752	57
1	489	127.862904491567	58
1	495	129.045786926199	59
1	503	130.076575391188	60
1	513	131.9340697183	61
1	523	133.138531863602	62
1	533	134.219183662931	63
1	543	135.478482406241	64
1	555	138.693544062384	65
1	565	139.974633578418	66
1	575	141.751482980649	67
1	585	143.610013320131	68
1	593	144.640869176835	69
1	597	146.401943004541	70
1	601	147.659731020206	71
1	611	148.944337966731	72
1	617	150.461452850018	73
1	631	154.953790456467	74
1	639	157.936049219805	75
1	649	160.943474005769	76
1	655	162.829774948467	77
1	663	164.020138774657	78
1	667	166.029573203266	79
1	673	167.059931809907	80
1	683	168.367503195877	81
1	691	170.002749401629	82
1	701	171.072138534391	83
1	711	172.637668697376	84
1	721	174.329334997715	85
1	725	175.749085438697	86
1	735	177.11133525238	87
1	741	179.115228199212	88
1	747	182.110431801177	89
1	751	183.675713209829	90
1	761	184.985017081609	91
1	771	188.104570274977	92
1	779	189.325824841526	93
1	783	191.203015804913	94
1	789	192.92531598566	95
1	799	194.130540915803	96
1	807	196.033084855255	97
1	815	197.60772802039	98
1	819	199.106082042996	99
2	17	5.905709031628	0
2	33	10.253764831604	1
2	43	13.72548662254	2
2	65	21.518416209535	3
2	75	23.115650706718	4
2	81	24.257747577223	5
2	93	26.50079975539	6
2	109	30.187572262953	7
2	119	33.657252268631	8
2	125	35.644875369968	9
2	133	37.143557182656	10
2	149	42.250648621471	11
2	155	44.143257694985	12
2	165	45.7974135351	13
2	175	47.494247848108	14
2	185	49.230655715841	15
2	195	51.030907762758	16
2	201	52.785777527329	17
2	211	54.568978504263	18
2	217	56.044689420336	19
2	227	58.768704729667	20
2	233	60.512533058781	21
2	251	66.92526955109	22
2	261	68.030762888065	23
2	275	71.083037997804	24
2	297	82.375543678972	25
2	305	85.118339626306	26
2	311	86.408425730158	27
2	317	87.484133035891	28
2	325	89.460018840629	29
2	337	94.158035246379	30
2	347	95.175213784794	31
2	361	97.741178418103	32
2	371	100.600223634384	33
2	377	101.981037139483	34
2	387	103.905898110827	35
2	399	107.059163029458	36
2	409	108.798105334079	37
2	419	109.797649869256	38
2	437	115.391410050725	39
2	449	119.402788322216	40
2	459	121.311504470246	41
2	469	122.550336708915	42
2	477	124.101409123246	43
2	491	127.873397831039	44
2	497	129.060885442038	45
2	505	130.089515112621	46
2	515	131.948342072252	47
2	525	133.164109802861	48
2	535	134.233643662402	49
2	545	135.496725425011	50
2	557	138.706026961997	51
2	567	139.984799576234	52
2	577	141.762355418472	53
2	587	143.636714307143	54
2	603	147.670490367649	55
2	613	148.960784446603	56
2	619	150.472952710898	57
2	633	154.963879982822	58
2	641	157.94776398116	59
2	651	160.955926609352	60
2	657	162.84147354575	61
2	669	166.052137435246	62
2	675	167.070774148428	63
2	685	168.387314464575	64
2	693	170.026989447021	65
2	703	171.085760844002	66
2	713	172.654856664785	67
2	727	175.764384748569	68
2	737	177.137894115714	69
2	753	183.702072868671	70
2	763	184.998162563043	71
2	773	188.139970272286	72
2	785	191.219729804677	73
2	791	192.937127483778	74
2	801	194.153940023586	75
2	809	196.047738402556	76
3	19	5.934437268297	0
3	35	10.269398283917	1
3	45	13.736460554931	2
3	67	21.530617077982	3
3	83	24.271292853997	4
3	95	26.534168433389	5
3	127	35.662653720923	6
3	135	37.169278776344	7
3	157	44.163414289512	8
3	167	45.821820324955	9
3	177	47.511141572635	10
3	187	49.26910076552	11
3	203	52.795868015457	12
3	219	56.05541600359	13
3	235	60.523038670676	14
3	253	66.969586506361	15
3	263	68.046174474228	16
3	277	71.106976142239	17
3	319	87.507640592273	18
3	327	89.492370087675	19
3	339	94.174110125501	20
3	349	95.187642787601	21
3	379	102.000799991799	22
3	389	103.917706211178	23
3	401	107.095092417833	24
3	411	108.809931969342	25
3	421	109.817045641665	26
3	451	119.41716693494	27
3	461	121.327125096225	28
3	471	122.564099814009	29
3	479	124.13134556422	30
3	499	129.079487002939	31
3	507	130.100373468669	32
3	517	131.970377935385	33
3	527	133.197188648678	34
3	537	134.246390894856	35
3	547	135.508562619931	36
3	559	138.716351741642	37
3	569	139.998349200687	38
3	579	141.772808240835	39
3	589	143.656828308334	40
3	605	147.691288230692	41
3	621	150.49072462189	42
3	643	157.967055290216	43
3	659	162.858614414548	44
3	677	167.08511466652	45
3	687	168.401192462679	46
3	695	170.042203330842	47
3	705	171.099526055281	48
3	715	172.67440866798	49
3	729	175.80821240067	50
3	755	183.718613343546	51
3	765	185.014832343289	52
3	775	188.152207644076	53
3	793	192.954119066538	54
3	803	194.166921427871	55
3	811	196.058603304538	56
4	21	5.948195460224	0
4	47	13.753761831982	1
4	69	21.544036766147	2
4	85	24.287201188024	3
4	97	26.545440978709	4
4	137	37.179581320794	5
4	159	44.174764641949	6
4	169	45.836229150367	7
4	179	47.521908137229	8
4	189	49.283877951293	9
4	205	52.818213796931	10
4	237	60.540354679564	11
4	255	66.98284822484	12
4	265	68.060760653012	13
4	279	71.122559030043	14
4	341	94.191699287607	15
4	351	95.22246513416	16
4	381	102.014723272091	17
4	391	103.939323594819	18
4	403	107.107367828868	19
4	413	108.820175937564	20
4	423	109.827400335579	21
4	453	119.449827562096	22
4	463	121.341375987961	23
4	481	124.144027866826	24
4	509	130.11209032383	25
4	519	131.992334989315	26
4	529	133.207235390878	27
4	539	134.256625308299	28
4	549	135.524028439162	29
4	561	138.753665779143	30
4	571	140.016130142979	31
4	581	141.788674657741	32
4	607	147.703363130045	33
4	623	150.507018561226	34
4	679	167.095124804456	35
4	697	170.064388614007	36
4	707	171.112093855116	37
4	717	172.684876032977	38
4	731	175.820482132466	39
4	757	183.735299340505	40
4	795	192.979611012276	41
5	22	5.958195460224	0
5	48	13.763761831982	1
5	70	21.554036766147	2
5	86	24.297201188024	3
5	138	37.189581320794	4
5	160	44.184764641949	5
5	170	45.846229150367	6
5	206	52.828213796931	7
5	280	71.132559030043	8
5	342	94.201699287607	9
5	352	95.23246513416	10
5	404	107.117367828868	11
5	414	108.830175937564	12
5	454	119.459827562096	13
5	464	121.351375987961	14
5	482	124.154027866826	15
5	510	130.12209032383	16
5	520	132.002334989315	17
5	530	133.217235390878	18
5	540	134.266625308299	19
5	550	135.534028439162	20
5	562	138.763665779143	21
5	572	140.026130142979	22
5	582	141.798674657741	23
5	624	150.517018561226	24
5	680	167.105124804456	25
5	708	171.122093855116	26
5	718	172.694876032977	27
5	732	175.830482132466	28
5	796	192.989611012276	29

