version 2
run General-4-20231004-17:43:06-7874
attr configname General
attr datetime 20231004-17:43:06
attr experiment General
attr inifile omnetpp.ini
attr iterationvars ""
attr iterationvarsf ""
attr measurement ""
attr network Multihop
attr processid 7874
attr repetition 4
attr replication #4
attr resultdir results
attr runnumber 4
attr seedset 4
param Multihop.node[*].transmissionTime "uniform(1s, 2s)"
param Multihop.node[*].delayTime "uniform(0.01s, 0.2s)"
param Multihop.node[*].processingTime exponential(0.01s)
param Multihop.node[*].lossProbability 0.25

vector 0 Multihop.node[0] txVector ETV
vector 1 Multihop.node[1] txVector ETV
vector 2 Multihop.node[2] txVector ETV
vector 3 Multihop.node[3] txVector ETV
vector 4 Multihop.node[4] txVector ETV
vector 5 Multihop.node[5] rxVector ETV
0	1	0.193735669288	0
0	11	2.094357123985	1
0	15	3.235821296847	2
0	23	4.934241536227	3
0	29	6.506598028042	4
0	33	7.89836422346	5
0	37	9.510889566656	6
0	47	11.154803829886	7
0	49	12.601153030446	8
0	51	14.042501563825	9
0	55	15.108211102583	10
0	65	16.974093857607	11
0	67	18.235065936497	12
0	69	19.270824124724	13
0	79	20.499586794911	14
0	87	21.874955228683	15
0	97	23.451952197509	16
0	107	24.704861806626	17
0	111	25.831043467312	18
0	121	27.516631670683	19
0	131	28.873004760514	20
0	135	30.571985786469	21
0	139	31.651965026432	22
0	149	32.747163103815	23
0	153	34.691113776915	24
0	161	36.282987422697	25
0	163	37.803661824126	26
0	173	39.110674495731	27
0	183	40.897427641709	28
0	191	42.378887585054	29
0	201	44.346567214389	30
0	211	45.483493032555	31
0	213	47.36028588928	32
0	223	49.297420394762	33
0	227	50.759749757048	34
0	237	52.068544321616	35
0	247	53.158686044083	36
0	251	54.195547600898	37
0	253	55.857850036041	38
0	257	57.441393567638	39
0	267	59.345770189462	40
0	273	60.480515835497	41
0	275	61.972303473081	42
0	285	63.903717740595	43
0	293	65.419489418778	44
0	301	66.558671218266	45
0	303	67.874947724088	46
0	309	69.628803173934	47
0	319	70.855784193302	48
0	329	72.853188181218	49
0	337	74.730266085049	50
0	339	76.457994756443	51
0	349	78.147780050445	52
0	351	79.164263668624	53
0	353	80.47763029478	54
0	361	82.467747214869	55
0	365	83.561827857433	56
0	375	84.756775545109	57
0	385	86.14844360311	58
0	387	87.232343985619	59
0	397	88.847706000473	60
0	399	90.253465214431	61
0	401	92.225168535638	62
0	403	93.269091043773	63
0	413	94.554335637403	64
0	417	95.805834103528	65
0	421	97.393468509813	66
0	431	98.418870211265	67
0	441	99.526861404453	68
0	451	101.452048517449	69
0	457	103.189159392996	70
0	467	104.301033709349	71
0	469	105.830106092069	72
0	471	107.243147135397	73
0	473	108.305714041145	74
0	477	109.501738434575	75
0	487	110.851469532271	76
0	489	112.142309385502	77
0	491	113.88813694954	78
0	495	115.83980554171	79
0	503	117.160170194377	80
0	509	118.695190360919	81
0	515	120.096889449433	82
0	521	121.40429433683	83
0	525	122.811050163033	84
0	527	124.54126549434	85
0	535	126.137768771184	86
0	541	127.758338021498	87
0	547	129.542948757216	88
0	557	130.760864893125	89
0	563	132.251801053445	90
0	573	133.284860521007	91
0	577	134.503026191994	92
0	587	136.069506226258	93
0	593	137.182863131549	94
0	599	139.032928266946	95
0	609	140.691963794093	96
0	617	141.80353469859	97
0	623	143.342982891632	98
0	629	144.556695950368	99
0	635	145.801495224854	100
0	643	147.171732520603	101
0	651	148.328825988027	102
0	661	149.986902702518	103
0	667	151.730872191873	104
0	677	152.931854495232	105
0	681	154.685243588791	106
0	691	156.025609750685	107
0	697	157.821522556397	108
0	699	159.692472605419	109
0	707	161.658001915238	110
0	715	163.576185216581	111
0	725	165.329250760994	112
0	735	166.85958457311	113
0	745	168.029202403653	114
0	755	169.423291210005	115
0	765	170.696183726344	116
0	771	172.010767371546	117
0	781	173.863580918092	118
0	791	174.918657920709	119
0	801	176.184052886129	120
0	803	177.698876686315	121
0	805	179.263733791574	122
0	811	180.382878687852	123
0	813	181.480914533292	124
0	823	183.140772782653	125
0	827	184.203045476382	126
0	831	185.43474500502	127
0	839	186.49235680738	128
0	849	188.300094760642	129
0	853	190.110273438426	130
0	855	191.367108860439	131
0	859	193.228432192853	132
0	863	194.413698472701	133
0	869	195.510548895145	134
0	875	197.40457460998	135
0	885	199.22688755222	136
1	3	0.205631491707	0
1	13	2.106899673373	1
1	17	3.269170161585	2
1	25	4.948727814963	3
1	31	6.533308382343	4
1	35	7.91146314286	5
1	39	9.537552935789	6
1	53	14.054435727416	7
1	57	15.136759892155	8
1	71	19.283196302978	9
1	81	20.519601577504	10
1	89	21.889288840461	11
1	99	23.4624378571	12
1	109	24.715649061448	13
1	113	25.870432078051	14
1	123	27.55012593195	15
1	133	28.894076545481	16
1	137	30.582442538874	17
1	141	31.664416749161	18
1	151	32.758940883424	19
1	155	34.7311422844	20
1	165	37.83156833803	21
1	175	39.132374851798	22
1	185	40.933656731366	23
1	193	42.392753267594	24
1	203	44.357760798424	25
1	215	47.377270463284	26
1	225	49.308992341663	27
1	229	50.783742016484	28
1	239	52.080717237568	29
1	249	53.169567608942	30
1	255	55.880827854695	31
1	259	57.451562157425	32
1	269	59.362156174564	33
1	277	62.009775620359	34
1	287	63.920445092642	35
1	295	65.442566268854	36
1	305	67.888222102949	37
1	311	69.653674121347	38
1	321	70.869274557485	39
1	331	72.872270362441	40
1	341	76.474002637086	41
1	355	80.509175600369	42
1	363	82.480836916529	43
1	367	83.576838860337	44
1	377	84.770376171162	45
1	389	87.244515987576	46
1	405	93.282244510422	47
1	415	94.584238750493	48
1	419	95.828149080967	49
1	423	97.404934446745	50
1	433	98.429819829641	51
1	443	99.53885169052	52
1	453	101.479657409715	53
1	459	103.207150587939	54
1	475	108.321762277169	55
1	479	109.51376596304	56
1	493	113.90900739208	57
1	497	115.856834686014	58
1	505	117.173657872712	59
1	511	118.721189893427	60
1	517	120.108326676469	61
1	523	121.434326141034	62
1	529	124.568148486957	63
1	537	126.148483402894	64
1	543	127.768376823055	65
1	549	129.556026458455	66
1	559	130.78436027967	67
1	565	132.264119907751	68
1	575	133.328507805575	69
1	579	134.54124101983	70
1	589	136.080012054099	71
1	595	137.199642090843	72
1	601	139.046108917114	73
1	611	140.706331062118	74
1	619	141.817969996354	75
1	625	143.376932361268	76
1	631	144.59085979436	77
1	637	145.816804085386	78
1	645	147.183038733454	79
1	653	148.345453231905	80
1	663	150.004066786951	81
1	669	151.790478090198	82
1	679	152.949952210129	83
1	683	154.696054292522	84
1	693	156.03561756268	85
1	701	159.709821920076	86
1	709	161.671448585038	87
1	717	163.595336436222	88
1	727	165.344149421775	89
1	737	166.873251035374	90
1	747	168.051385323	91
1	757	169.439115491846	92
1	767	170.706584899309	93
1	773	172.038602391842	94
1	783	173.885036045478	95
1	793	174.938010280284	96
1	807	179.273936447044	97
1	815	181.499442573596	98
1	825	183.15319936278	99
1	829	184.235086986989	100
1	833	185.455401647862	101
1	841	186.505750221504	102
1	851	188.310252594639	103
1	857	191.379567267215	104
1	861	193.238904933399	105
1	865	194.430316663514	106
1	871	195.525580527995	107
1	877	197.43538322973	108
1	887	199.239484639287	109
2	5	0.234984622813	0
2	19	3.289193090482	1
2	27	4.967994557939	2
2	41	9.54774501619	3
2	59	15.172683005899	4
2	73	19.295189603963	5
2	83	20.53212514534	6
2	91	21.905595266846	7
2	101	23.498946051094	8
2	115	25.884225279236	9
2	125	27.564848705603	10
2	143	31.690868257424	11
2	157	34.745711494908	12
2	167	37.868071142807	13
2	177	39.152885684112	14
2	187	40.945609680627	15
2	195	42.424451052855	16
2	205	44.368511086676	17
2	217	47.401033698184	18
2	231	50.807821667053	19
2	241	52.098960473089	20
2	261	57.484262548009	21
2	271	59.382222966091	22
2	279	62.026706321278	23
2	289	63.950877511237	24
2	297	65.460898280805	25
2	307	67.899495627456	26
2	313	69.679169722922	27
2	323	70.890304142232	28
2	333	72.885562523709	29
2	343	76.490626957332	30
2	357	80.519377039294	31
2	369	83.602419300713	32
2	379	84.786678504788	33
2	391	87.259309810532	34
2	407	93.298459284857	35
2	425	97.422839970594	36
2	435	98.447317309841	37
2	445	99.559083796241	38
2	455	101.494584816694	39
2	461	103.232852787766	40
2	481	109.544124108372	41
2	499	115.867785208346	42
2	507	117.192174229359	43
2	513	118.735584585806	44
2	519	120.14030987258	45
2	531	124.589092402251	46
2	539	126.181431990519	47
2	545	127.8054887688	48
2	551	129.587346580882	49
2	561	130.801392263148	50
2	567	132.292511834421	51
2	581	134.55228573222	52
2	591	136.092182565085	53
2	597	137.248983518079	54
2	603	139.066477929493	55
2	613	140.723901028014	56
2	621	141.835264127574	57
2	627	143.405526041921	58
2	633	144.617966865324	59
2	639	145.873294259782	60
2	647	147.194097644879	61
2	655	148.360525683015	62
2	665	150.027754012704	63
2	671	151.80573885467	64
2	685	154.706647349169	65
2	695	156.091136126945	66
2	703	159.733722270836	67
2	711	161.682662733627	68
2	719	163.605778886413	69
2	729	165.36265834734	70
2	739	166.898881557992	71
2	749	168.087039550206	72
2	759	169.486303476611	73
2	769	170.727624291283	74
2	775	172.05104630761	75
2	785	173.903204471551	76
2	795	174.966019047209	77
2	809	179.293510751591	78
2	817	181.512144170415	79
2	835	185.483742412015	80
2	843	186.535320256974	81
2	867	194.440776377249	82
2	873	195.53842144708	83
2	879	197.456401433286	84
2	889	199.264195331588	85
3	7	0.254376010482	0
3	21	3.299244815524	1
3	43	9.558150948502	2
3	61	15.203108817042	3
3	75	19.308989276828	4
3	85	20.54361886389	5
3	93	21.920038881008	6
3	103	23.511639775933	7
3	117	25.915121982074	8
3	127	27.593603743461	9
3	145	31.701926090441	10
3	159	34.75593005294	11
3	169	37.87945153342	12
3	179	39.190578263688	13
3	189	40.95727056003	14
3	197	42.442333918714	15
3	207	44.380658365774	16
3	219	47.417731346932	17
3	233	50.842772668368	18
3	243	52.109065287194	19
3	263	57.501272345423	20
3	281	62.041976472456	21
3	291	63.983714337758	22
3	299	65.493061230013	23
3	315	69.699688682358	24
3	325	70.903372933989	25
3	335	72.90939519377	26
3	345	76.505822486024	27
3	359	80.530461751009	28
3	371	83.613341666018	29
3	381	84.843416972051	30
3	393	87.298767264156	31
3	409	93.313989524956	32
3	427	97.43587594744	33
3	437	98.459602783267	34
3	447	99.570143516943	35
3	463	103.305091761263	36
3	483	109.558469051133	37
3	501	115.887789829963	38
3	533	124.600688171057	39
3	553	129.628990398606	40
3	569	132.321232394973	41
3	583	134.594883539736	42
3	605	139.079250570067	43
3	615	140.733914595928	44
3	641	145.884773783943	45
3	649	147.217774302762	46
3	657	148.37617773049	47
3	673	151.826873508657	48
3	687	154.720095015085	49
3	705	159.74510006911	50
3	713	161.703140933476	51
3	721	163.634269075782	52
3	731	165.375951583268	53
3	741	166.92165682306	54
3	751	168.103339740993	55
3	761	169.499924381654	56
3	777	172.067919107684	57
3	787	173.935921736594	58
3	797	174.977613757682	59
3	819	181.530638139018	60
3	837	185.504309195612	61
3	845	186.546393498233	62
3	881	197.486292348995	63
3	891	199.275481749075	64
4	9	0.273478008816	0
4	45	9.597155868518	1
4	63	15.231142485232	2
4	77	19.321747320488	3
4	95	21.930907203245	4
4	105	23.538294830041	5
4	119	25.937100749798	6
4	129	27.616825345613	7
4	147	31.712590174481	8
4	171	37.907238116043	9
4	181	39.203272123942	10
4	199	42.456971847202	11
4	209	44.390687674638	12
4	221	47.427770632972	13
4	235	50.87960951618	14
4	245	52.121677595964	15
4	265	57.52081277633	16
4	283	62.068627940586	17
4	317	69.713361948688	18
4	327	70.918861081347	19
4	347	76.546181868216	20
4	373	83.628087326488	21
4	383	84.867170454663	22
4	395	87.311451001924	23
4	411	93.338081032416	24
4	429	97.447915012339	25
4	439	98.473068060148	26
4	449	99.585873559677	27
4	465	103.333163002545	28
4	485	109.570274224287	29
4	555	129.641748313486	30
4	571	132.368113175752	31
4	585	134.609652270871	32
4	607	139.099549067683	33
4	659	148.406445809869	34
4	675	151.840276150872	35
4	689	154.732901178421	36
4	723	163.659574136435	37
4	733	165.391946227249	38
4	743	166.938412009427	39
4	753	168.118657967589	40
4	763	169.531213829075	41
4	779	172.081830603546	42
4	789	173.964730628401	43
4	799	175.003080641295	44
4	821	181.565320022561	45
4	847	186.608408419283	46
4	883	197.496632332077	47
5	46	9.607155868518	0
5	64	15.241142485232	1
5	78	19.331747320488	2
5	96	21.940907203245	3
5	120	25.947100749798	4
5	130	27.626825345613	5
5	172	37.917238116043	6
5	200	42.466971847202	7
5	210	44.400687674638	8
5	246	52.131677595964	9
5	266	57.53081277633	10
5	284	62.078627940586	11
5	318	69.723361948688	12
5	328	70.928861081347	13
5	348	76.556181868216	14
5	374	83.638087326488	15
5	384	84.877170454663	16
5	396	87.321451001924	17
5	440	98.483068060148	18
5	450	99.595873559677	19
5	556	129.651748313486	20
5	572	132.378113175752	21
5	586	134.619652270871	22
5	608	139.109549067683	23
5	660	148.416445809869	24
5	676	151.850276150872	25
5	690	154.742901178421	26
5	724	163.669574136435	27
5	734	165.401946227249	28
5	744	166.948412009427	29
5	754	168.128657967589	30
5	764	169.541213829075	31
5	780	172.091830603546	32
5	790	173.974730628401	33
5	800	175.013080641295	34
5	822	181.575320022561	35
5	848	186.618408419283	36

