version 2
run General-3-20231004-17:43:06-7874
attr configname General
attr datetime 20231004-17:43:06
attr experiment General
attr inifile omnetpp.ini
attr iterationvars ""
attr iterationvarsf ""
attr measurement ""
attr network Multihop
attr processid 7874
attr repetition 3
attr replication #3
attr resultdir results
attr runnumber 3
attr seedset 3
param Multihop.node[*].transmissionTime "uniform(1s, 2s)"
param Multihop.node[*].delayTime "uniform(0.01s, 0.2s)"
param Multihop.node[*].processingTime exponential(0.01s)
param Multihop.node[*].lossProbability 0.25

vector 0 Multihop.node[0] txVector ETV
vector 1 Multihop.node[1] txVector ETV
vector 2 Multihop.node[2] txVector ETV
vector 3 Multihop.node[3] txVector ETV
vector 4 Multihop.node[4] txVector ETV
vector 5 Multihop.node[5] rxVector ETV
0	1	0.114651601831	0
0	11	1.185376482154	1
0	13	2.20412449243	2
0	15	3.244755229982	3
0	17	4.492643531714	4
0	21	5.586195027292	5
0	31	6.731565174716	6
0	33	8.644866627478	7
0	43	10.410693002003	8
0	47	11.997312974022	9
0	55	13.451920738979	10
0	65	15.344985845336	11
0	71	17.153915044922	12
0	79	18.567633728567	13
0	89	19.883400976961	14
0	99	21.537031829427	15
0	101	22.612231943128	16
0	103	24.372810433456	17
0	107	25.436580235209	18
0	117	27.129213982332	19
0	127	28.937576215319	20
0	133	30.763704289985	21
0	135	32.065967903542	22
0	139	33.872990578483	23
0	149	34.894216318685	24
0	151	36.101182454336	25
0	153	38.026915238775	26
0	155	39.304238287802	27
0	157	40.480300403037	28
0	159	42.470601591584	29
0	161	44.163252207986	30
0	165	45.915392238018	31
0	175	47.0013929534	32
0	185	48.426122904126	33
0	195	49.776048126001	34
0	199	51.657956573716	35
0	201	53.485978690744	36
0	211	54.719670699979	37
0	213	56.189052012353	38
0	223	57.691582228592	39
0	225	59.194837518804	40
0	227	60.767075138701	41
0	229	62.109494725544	42
0	235	63.719140440295	43
0	239	65.719115904136	44
0	241	66.976322282175	45
0	251	68.252963828924	46
0	257	70.248407003772	47
0	259	71.740222551929	48
0	261	72.869880935945	49
0	269	74.729934398853	50
0	279	76.721230119769	51
0	287	78.417980107548	52
0	297	79.499551150086	53
0	299	80.905450134142	54
0	307	82.443913825857	55
0	317	83.940578780439	56
0	319	85.100225938786	57
0	329	86.919768022442	58
0	335	88.158204320188	59
0	337	90.086703166667	60
0	347	91.449779446305	61
0	351	92.893367125255	62
0	359	94.67575110432	63
0	369	95.781410308855	64
0	373	97.191501643576	65
0	375	98.213597457923	66
0	383	99.435973777503	67
0	391	100.912905541782	68
0	395	102.715733511907	69
0	401	104.076817286967	70
0	403	105.360506736741	71
0	407	106.573401072363	72
0	409	107.699222112142	73
0	419	109.692145669202	74
0	423	111.146457450066	75
0	429	112.935046586275	76
0	431	114.059668336363	77
0	433	115.090597532756	78
0	437	116.322695922173	79
0	439	117.597333391729	80
0	443	119.53924775526	81
0	453	120.615035960051	82
0	455	122.230225416199	83
0	463	123.41096574517	84
0	465	125.20428842336	85
0	475	126.838591893037	86
0	477	128.370055023414	87
0	485	129.548593857392	88
0	489	130.874857862779	89
0	491	131.975435575537	90
0	495	133.477358918937	91
0	505	134.547728678279	92
0	513	136.392175657975	93
0	517	138.236451289917	94
0	527	140.093069448436	95
0	531	141.72784266744	96
0	539	142.919125958646	97
0	547	144.73539520737	98
0	557	146.409725582527	99
0	567	147.841243807061	100
0	577	149.737652793594	101
0	581	150.794352931271	102
0	585	152.6576045403	103
0	589	154.554668148116	104
0	591	156.39690937551	105
0	601	158.029869908768	106
0	603	159.626774520914	107
0	613	161.609579291495	108
0	623	163.025178502148	109
0	627	164.437609568538	110
0	629	165.491616554625	111
0	631	167.214058757128	112
0	633	168.842084242331	113
0	635	170.250674086457	114
0	645	171.415273634551	115
0	655	173.297707776839	116
0	661	174.788769088054	117
0	667	175.798625912351	118
0	673	177.291477234169	119
0	683	178.366202142389	120
0	689	179.899080977609	121
0	699	181.308654207803	122
0	701	183.200077881638	123
0	703	185.055626083233	124
0	705	186.383862436118	125
0	715	187.470106053699	126
0	725	189.252009021186	127
0	733	190.472682674716	128
0	741	191.699887112782	129
0	745	193.002746666849	130
0	755	195.001093745532	131
0	761	196.741086815784	132
0	765	198.230350807376	133
0	775	199.257988415027	134
1	3	0.14297423212	0
1	19	4.514512186676	1
1	23	5.602231242454	2
1	35	8.691228841394	3
1	45	10.42390773634	4
1	49	12.021487326281	5
1	57	13.474594197702	6
1	67	15.360077298301	7
1	73	17.17938618054	8
1	81	18.585906689836	9
1	91	19.904268395164	10
1	105	24.401201533226	11
1	109	25.452484344193	12
1	119	27.143016116659	13
1	129	28.954949386735	14
1	137	32.079817105152	15
1	141	33.889576988782	16
1	163	44.174487640567	17
1	167	45.936347147896	18
1	177	47.02852876336	19
1	187	48.450939451622	20
1	197	49.7939311173	21
1	203	53.498246161709	22
1	215	56.200943817403	23
1	231	62.120780077262	24
1	237	63.732259474239	25
1	243	66.989222350041	26
1	253	68.267360188679	27
1	263	72.882345030883	28
1	271	74.741650230124	29
1	281	76.745029574138	30
1	289	78.431657231424	31
1	301	80.925936170202	32
1	309	82.466078994054	33
1	321	85.113828441944	34
1	331	86.941730240465	35
1	339	90.112800412559	36
1	349	91.470081741745	37
1	353	92.919154382793	38
1	361	94.691531496194	39
1	371	95.792908966907	40
1	377	98.228009609174	41
1	385	99.45323638694	42
1	393	100.946008771825	43
1	397	102.747280739216	44
1	405	105.375958604306	45
1	411	107.714905499465	46
1	421	109.70722292207	47
1	425	111.166066518542	48
1	435	115.100725908167	49
1	441	117.610573642802	50
1	445	119.552454659848	51
1	457	122.253844533139	52
1	467	125.228586336982	53
1	479	128.394714188282	54
1	487	129.567362877255	55
1	493	132.001579890832	56
1	497	133.505616430346	57
1	507	134.567334883301	58
1	515	136.407389085076	59
1	519	138.262363636709	60
1	529	140.107229641645	61
1	533	141.74619856851	62
1	541	142.94645521817	63
1	549	144.76929386555	64
1	559	146.444303997566	65
1	569	147.86483462976	66
1	579	149.755415302405	67
1	583	150.813329435771	68
1	587	152.675552530937	69
1	593	156.422572716684	70
1	605	159.646369523515	71
1	615	161.628044577214	72
1	625	163.069209558767	73
1	637	170.265196911304	74
1	647	171.435095493443	75
1	657	173.321563540911	76
1	663	174.799636352857	77
1	669	175.818804450994	78
1	675	177.306523386578	79
1	685	178.383937157135	80
1	691	179.918263869432	81
1	707	186.398058268113	82
1	717	187.487865924466	83
1	727	189.281054697308	84
1	735	190.497282063223	85
1	743	191.710265553715	86
1	747	193.022843272065	87
1	757	195.02863417249	88
1	763	196.754483233568	89
1	767	198.241437633341	90
1	777	199.280124526339	91
2	5	0.154267674735	0
2	25	5.614659311245	1
2	37	8.706376519272	2
2	51	12.048501253561	3
2	59	13.484802497171	4
2	69	15.375605962636	5
2	75	17.201888643091	6
2	83	18.609696201192	7
2	93	19.934753410792	8
2	111	25.466983851916	9
2	121	27.171581470942	10
2	131	28.96648788636	11
2	143	33.899840698217	12
2	169	45.950345527965	13
2	179	47.046998386574	14
2	189	48.48362096539	15
2	205	53.540027396107	16
2	217	56.214487833471	17
2	233	62.131177033738	18
2	245	67.022024426428	19
2	255	68.285281707037	20
2	265	72.909736590699	21
2	273	74.758011586435	22
2	283	76.772014197879	23
2	291	78.449889477267	24
2	303	80.939646251012	25
2	311	82.487438492702	26
2	323	85.124948061459	27
2	333	86.951988834091	28
2	341	90.13551421758	29
2	355	92.93394973383	30
2	363	94.720788792773	31
2	379	98.253277020955	32
2	387	99.467832647809	33
2	399	102.76093540681	34
2	413	107.73449501046	35
2	427	111.185019788805	36
2	447	119.605160478964	37
2	459	122.268393424206	38
2	469	125.248748908574	39
2	481	128.404967625673	40
2	499	133.527337172771	41
2	509	134.629401433849	42
2	521	138.273481240655	43
2	535	141.756472608076	44
2	543	142.956688139592	45
2	551	144.791878708071	46
2	561	146.468749770165	47
2	571	147.88025130711	48
2	595	156.433017525292	49
2	607	159.66483566907	50
2	617	161.64001690438	51
2	639	170.278168076975	52
2	649	171.45619625413	53
2	659	173.334305590677	54
2	665	174.816672055358	55
2	671	175.837358948887	56
2	677	177.321405425818	57
2	687	178.406596616305	58
2	693	179.928626963769	59
2	709	186.40811902272	60
2	719	187.558778899361	61
2	729	189.312603331335	62
2	737	190.507909476947	63
2	749	193.038383290748	64
2	759	195.044496088893	65
2	769	198.25761606436	66
2	779	199.290574460841	67
3	7	0.172691372567	0
3	27	5.629027399645	1
3	39	8.724423385594	2
3	53	12.06147972642	3
3	61	13.496342372947	4
3	77	17.212122532796	5
3	85	18.629102641604	6
3	95	19.961425551297	7
3	113	25.484242510776	8
3	123	27.188301029173	9
3	145	33.916884277238	10
3	171	45.964834223206	11
3	181	47.078294014658	12
3	191	48.509026164758	13
3	207	53.564558267912	14
3	219	56.227618616289	15
3	247	67.050057463545	16
3	267	72.983409082966	17
3	275	74.780302151177	18
3	285	76.800834669678	19
3	293	78.485129330867	20
3	305	80.968057036364	21
3	313	82.507204305286	22
3	325	85.138321045034	23
3	343	90.154739582819	24
3	357	92.949190818313	25
3	365	94.765665882552	26
3	381	98.26924450949	27
3	389	99.480876554653	28
3	415	107.783164194749	29
3	449	119.620653101979	30
3	461	122.293388593862	31
3	471	125.269394899424	32
3	483	128.415649021071	33
3	501	133.538662863715	34
3	511	134.643468837633	35
3	523	138.296047211182	36
3	537	141.767016906161	37
3	545	142.968757778541	38
3	553	144.817439777202	39
3	563	146.481051949723	40
3	573	147.927117564417	41
3	597	156.44619939789	42
3	609	159.687212920071	43
3	619	161.662031745608	44
3	641	170.297516283892	45
3	651	171.488942145341	46
3	679	177.335540081622	47
3	695	179.943964818891	48
3	711	186.418642123156	49
3	721	187.590740709568	50
3	731	189.329165000743	51
3	739	190.519761954961	52
3	751	193.053944402201	53
3	771	198.272353763067	54
3	781	199.302270481942	55
4	9	0.188437229315	0
4	29	5.645812663933	1
4	41	8.738081416485	2
4	63	13.510277335815	3
4	87	18.641376096888	4
4	97	19.976111593037	5
4	115	25.500355089646	6
4	125	27.206068917437	7
4	147	33.951898299495	8
4	173	45.982302044815	9
4	183	47.104418614943	10
4	193	48.522358642374	11
4	209	53.57664390704	12
4	221	56.259413279677	13
4	249	67.061639407921	14
4	277	74.794457395392	15
4	295	78.496126223078	16
4	315	82.578453806973	17
4	327	85.160824862135	18
4	345	90.167372222909	19
4	367	94.788400941974	20
4	417	107.796636456477	21
4	451	119.643752345752	22
4	473	125.279399688726	23
4	503	133.556289871557	24
4	525	138.323759137614	25
4	555	144.82836726824	26
4	565	146.493688792074	27
4	575	147.97326843858	28
4	599	156.466110676288	29
4	611	159.701091107856	30
4	621	161.678007187411	31
4	643	170.338757204496	32
4	653	171.510391851832	33
4	681	177.35302464888	34
4	697	179.978554838281	35
4	713	186.459752291506	36
4	723	187.601604919905	37
4	753	193.071356953202	38
4	773	198.291979527979	39
4	783	199.313566983348	40
5	10	0.198437229315	0
5	30	5.655812663933	1
5	42	8.748081416485	2
5	64	13.520277335815	3
5	88	18.651376096888	4
5	98	19.986111593037	5
5	116	25.510355089646	6
5	126	27.216068917437	7
5	148	33.961898299495	8
5	174	45.992302044815	9
5	184	47.114418614943	10
5	194	48.532358642374	11
5	210	53.58664390704	12
5	222	56.269413279677	13
5	250	67.071639407921	14
5	296	78.506126223078	15
5	328	85.170824862135	16
5	346	90.177372222909	17
5	368	94.798400941974	18
5	418	107.806636456477	19
5	452	119.653752345752	20
5	474	125.289399688726	21
5	504	133.566289871557	22
5	526	138.333759137614	23
5	556	144.83836726824	24
5	566	146.503688792074	25
5	576	147.98326843858	26
5	600	156.476110676288	27
5	612	159.711091107856	28
5	644	170.348757204496	29
5	654	171.520391851832	30
5	682	177.36302464888	31
5	754	193.081356953202	32
5	774	198.301979527979	33
5	784	199.323566983348	34

