version 2
run General-1-20231008-09:20:52-19174
attr configname General
attr datetime 20231008-09:20:52
attr experiment General
attr inifile omnetpp.ini
attr iterationvars ""
attr iterationvarsf ""
attr measurement ""
attr network Network3
attr processid 19174
attr repetition 1
attr replication #1
attr resultdir results
attr runnumber 1
attr seedset 1
param Network3.node[*].transmissionTime "uniform(1s, 2s)"
param Network3.node[*].delayTime "uniform(0.01s, 0.2s)"
param Network3.node[*].processingTime exponential(0.01s)
param Network3.node[0].lossProbability 0
param Network3.node[1].lossProbability 0.5
param Network3.node[2].lossProbability 0.5
param Network3.node[3].lossProbability "0.5 / 2"
param Network3.node[4].lossProbability "0.5 / 2"
param Network3.node[6].lossProbability "0.5 * 2"
param Network3.node[7].lossProbability "0.5 * 2"
param Network3.node[5].lossProbability "0.5 * 3"

vector 0 Network3.node[0] txVector ETV
vector 1 Network3.node[1] txVector ETV
vector 2 Network3.node[4] txVector ETV
vector 3 Network3.node[2] txVector ETV
vector 4 Network3.node[3] txVector ETV
0	1	0.089234179703	0
0	1	0.089234179703	1
0	12	2.086418987836	2
0	12	2.086418987836	3
0	15	3.272679199117	4
0	15	3.272679199117	5
0	29	4.942425239484	6
0	29	4.942425239484	7
0	40	6.476839146695	8
0	40	6.476839146695	9
0	58	8.277583713063	10
0	58	8.277583713063	11
0	76	10.155726217317	12
0	76	10.155726217317	13
0	86	11.174014497433	14
0	86	11.174014497433	15
0	89	12.963293829585	16
0	89	12.963293829585	17
0	92	14.036658003811	18
0	92	14.036658003811	19
0	95	15.945253508283	20
0	95	15.945253508283	21
0	98	17.848623679603	22
0	98	17.848623679603	23
0	113	18.978652248743	24
0	113	18.978652248743	25
0	123	20.592590567076	26
0	123	20.592590567076	27
0	134	22.542528700668	28
0	134	22.542528700668	29
0	149	24.057417808219	30
0	149	24.057417808219	31
0	167	25.595842502897	32
0	167	25.595842502897	33
0	170	27.35907556012	34
0	170	27.35907556012	35
0	188	29.254961775501	36
0	188	29.254961775501	37
0	191	30.663098579623	38
0	191	30.663098579623	39
0	209	32.426018646803	40
0	209	32.426018646803	41
0	224	34.190611217289	42
0	224	34.190611217289	43
0	230	36.123206682156	44
0	230	36.123206682156	45
0	241	37.878669733999	46
0	241	37.878669733999	47
0	244	39.274983022248	48
0	244	39.274983022248	49
0	258	40.30328951136	50
0	258	40.30328951136	51
0	268	41.582473192017	52
0	268	41.582473192017	53
0	271	43.3831058651	54
0	271	43.3831058651	55
0	286	45.100497467096	56
0	286	45.100497467096	57
0	304	46.221840918182	58
0	304	46.221840918182	59
0	307	47.78994138085	60
0	307	47.78994138085	61
0	310	48.863910378774	62
0	310	48.863910378774	63
0	313	50.607736236069	64
0	313	50.607736236069	65
0	327	52.546447934003	66
0	327	52.546447934003	67
0	333	54.43946914573	68
0	333	54.43946914573	69
0	343	55.479152647665	70
0	343	55.479152647665	71
0	358	56.588488711396	72
0	358	56.588488711396	73
0	364	57.958572912847	74
0	364	57.958572912847	75
0	367	59.711328471198	76
0	367	59.711328471198	77
0	370	61.067792153104	78
0	370	61.067792153104	79
0	373	62.872546718574	80
0	373	62.872546718574	81
0	391	64.80355964706	82
0	391	64.80355964706	83
0	394	66.490617945909	84
0	394	66.490617945909	85
0	412	67.72498003219	86
0	412	67.72498003219	87
0	422	69.329290521682	88
0	422	69.329290521682	89
0	425	71.292553055917	90
0	425	71.292553055917	91
0	428	72.647130289699	92
0	428	72.647130289699	93
0	443	73.782209445142	94
0	443	73.782209445142	95
0	461	75.285285354943	96
0	461	75.285285354943	97
0	479	76.71525325149	98
0	479	76.71525325149	99
0	482	78.579055050972	100
0	482	78.579055050972	101
0	496	80.47194375552	102
0	496	80.47194375552	103
0	510	82.151012592835	104
0	510	82.151012592835	105
0	524	83.979858402514	106
0	524	83.979858402514	107
0	542	85.734940585333	108
0	542	85.734940585333	109
0	548	87.052324536375	110
0	548	87.052324536375	111
0	558	89.026126617684	112
0	558	89.026126617684	113
0	576	90.823765424664	114
0	576	90.823765424664	115
0	586	92.396253945424	116
0	586	92.396253945424	117
0	604	93.861963821227	118
0	604	93.861963821227	119
0	622	95.550377069159	120
0	622	95.550377069159	121
0	625	97.460012595287	122
0	625	97.460012595287	123
0	628	98.678695498618	124
0	628	98.678695498618	125
0	631	99.871658231948	126
0	631	99.871658231948	127
0	642	101.204942537357	128
0	642	101.204942537357	129
0	660	102.82162760629	130
0	660	102.82162760629	131
0	671	103.966173145339	132
0	671	103.966173145339	133
0	674	105.276500983514	134
0	674	105.276500983514	135
0	680	107.149423362805	136
0	680	107.149423362805	137
0	698	109.016031633947	138
0	698	109.016031633947	139
0	716	110.050602855744	140
0	716	110.050602855744	141
0	726	111.833352272283	142
0	726	111.833352272283	143
0	732	113.37491164927	144
0	732	113.37491164927	145
0	746	115.368824668113	146
0	746	115.368824668113	147
0	764	117.114461855614	148
0	764	117.114461855614	149
0	767	119.104213564075	150
0	767	119.104213564075	151
0	770	120.380059463787	152
0	770	120.380059463787	153
0	784	121.642232542741	154
0	784	121.642232542741	155
0	787	122.939563927357	156
0	787	122.939563927357	157
0	805	124.14323825587	158
0	805	124.14323825587	159
0	816	125.707447001128	160
0	816	125.707447001128	161
0	819	126.788920969353	162
0	819	126.788920969353	163
0	837	128.150195681606	164
0	837	128.150195681606	165
0	848	129.806511541013	166
0	848	129.806511541013	167
0	866	131.265095354174	168
0	866	131.265095354174	169
0	884	132.739099281025	170
0	884	132.739099281025	171
0	887	134.277726565604	172
0	887	134.277726565604	173
0	905	135.558411357109	174
0	905	135.558411357109	175
0	923	137.113470709533	176
0	923	137.113470709533	177
0	933	138.98798097542	178
0	933	138.98798097542	179
0	951	140.97963497939	180
0	951	140.97963497939	181
0	969	142.285206593456	182
0	969	142.285206593456	183
0	980	144.16555006348	184
0	980	144.16555006348	185
0	998	145.682817661785	186
0	998	145.682817661785	187
0	1001	146.910717954044	188
0	1001	146.910717954044	189
0	1004	148.317420827807	190
0	1004	148.317420827807	191
0	1007	149.631797449314	192
0	1007	149.631797449314	193
0	1021	151.488270512666	194
0	1021	151.488270512666	195
0	1024	152.966720857309	196
0	1024	152.966720857309	197
0	1027	154.023685260095	198
0	1027	154.023685260095	199
0	1041	155.07532649499	200
0	1041	155.07532649499	201
0	1059	156.527970814031	202
0	1059	156.527970814031	203
0	1077	157.847819724936	204
0	1077	157.847819724936	205
0	1087	159.828231558554	206
0	1087	159.828231558554	207
0	1090	161.441785731936	208
0	1090	161.441785731936	209
0	1100	162.452674467001	210
0	1100	162.452674467001	211
0	1118	163.791382491706	212
0	1118	163.791382491706	213
0	1121	164.921718274593	214
0	1121	164.921718274593	215
0	1139	166.784629996517	216
0	1139	166.784629996517	217
0	1142	167.889298606315	218
0	1142	167.889298606315	219
0	1160	169.748616415426	220
0	1160	169.748616415426	221
0	1163	171.604444787722	222
0	1163	171.604444787722	223
0	1178	172.851365273237	224
0	1178	172.851365273237	225
0	1181	174.618649785524	226
0	1181	174.618649785524	227
0	1191	176.595130768489	228
0	1191	176.595130768489	229
0	1194	177.867829636089	230
0	1194	177.867829636089	231
0	1209	179.24491223495	232
0	1209	179.24491223495	233
0	1227	180.846716594999	234
0	1227	180.846716594999	235
0	1230	181.914685237105	236
0	1230	181.914685237105	237
0	1245	183.890728788567	238
0	1245	183.890728788567	239
0	1263	184.938192742295	240
0	1263	184.938192742295	241
0	1277	186.298325399752	242
0	1277	186.298325399752	243
0	1280	187.3806514967	244
0	1280	187.3806514967	245
0	1290	188.460755146225	246
0	1290	188.460755146225	247
0	1293	189.592916287831	248
0	1293	189.592916287831	249
0	1303	191.313434205134	250
0	1303	191.313434205134	251
0	1317	193.206750543904	252
0	1317	193.206750543904	253
0	1327	194.276146507705	254
0	1327	194.276146507705	255
0	1337	195.72546210431	256
0	1337	195.72546210431	257
0	1347	197.707517691771	258
0	1347	197.707517691771	259
0	1361	198.916308432701	260
0	1361	198.916308432701	261
0	1375	200.747749245842	262
0	1375	200.747749245842	263
0	1378	202.345347169437	264
0	1378	202.345347169437	265
0	1381	204.042655193829	266
0	1381	204.042655193829	267
0	1395	205.747539499425	268
0	1395	205.747539499425	269
0	1402	206.926205876632	270
0	1402	206.926205876632	271
0	1420	208.216350337373	272
0	1420	208.216350337373	273
0	1423	209.437832391471	274
0	1423	209.437832391471	275
0	1426	211.342742483713	276
0	1426	211.342742483713	277
0	1444	212.969598085502	278
0	1444	212.969598085502	279
0	1458	214.575077085173	280
0	1458	214.575077085173	281
0	1469	216.51783965656	282
0	1469	216.51783965656	283
0	1487	218.084971012431	284
0	1487	218.084971012431	285
0	1490	219.944935577572	286
0	1490	219.944935577572	287
0	1508	221.767665587016	288
0	1508	221.767665587016	289
0	1518	223.259210736607	290
0	1518	223.259210736607	291
0	1532	224.764952757046	292
0	1532	224.764952757046	293
0	1538	226.480898460023	294
0	1538	226.480898460023	295
0	1544	227.987978384713	296
0	1544	227.987978384713	297
0	1547	229.765826864517	298
0	1547	229.765826864517	299
0	1558	230.910853077541	300
0	1558	230.910853077541	301
0	1576	232.152271824074	302
0	1576	232.152271824074	303
0	1582	233.404304903583	304
0	1582	233.404304903583	305
0	1593	234.761816068204	306
0	1593	234.761816068204	307
0	1611	235.850022768486	308
0	1611	235.850022768486	309
0	1614	237.327270415263	310
0	1614	237.327270415263	311
0	1621	238.936101583881	312
0	1621	238.936101583881	313
1	4	0.126198958082	0
1	4	0.126198958082	1
1	4	0.126198958082	2
1	25	3.321611885654	3
1	25	3.321611885654	4
1	25	3.321611885654	5
1	32	4.976954904286	6
1	32	4.976954904286	7
1	32	4.976954904286	8
1	50	6.521341417568	9
1	50	6.521341417568	10
1	50	6.521341417568	11
1	61	8.288618966585	12
1	61	8.288618966585	13
1	61	8.288618966585	14
1	101	17.858819249154	15
1	101	17.858819249154	16
1	101	17.858819249154	17
1	126	20.609384185313	18
1	126	20.609384185313	19
1	126	20.609384185313	20
1	137	22.581459511457	21
1	137	22.581459511457	22
1	137	22.581459511457	23
1	159	24.132280456433	24
1	159	24.132280456433	25
1	159	24.132280456433	26
1	173	27.374663317359	27
1	173	27.374663317359	28
1	173	27.374663317359	29
1	197	30.687864928522	30
1	197	30.687864928522	31
1	197	30.687864928522	32
1	212	32.442318355522	33
1	212	32.442318355522	34
1	212	32.442318355522	35
1	233	36.147225888056	36
1	233	36.147225888056	37
1	233	36.147225888056	38
1	247	39.287809451085	39
1	247	39.287809451085	40
1	247	39.287809451085	41
1	274	43.402597829714	42
1	274	43.402597829714	43
1	274	43.402597829714	44
1	289	45.110953215171	45
1	289	45.110953215171	46
1	289	45.110953215171	47
1	317	50.62237460522	48
1	317	50.62237460522	49
1	317	50.62237460522	50
1	346	55.490731271939	51
1	346	55.490731271939	52
1	346	55.490731271939	53
1	376	62.891140725035	54
1	376	62.891140725035	55
1	376	62.891140725035	56
1	397	66.510209363395	57
1	397	66.510209363395	58
1	397	66.510209363395	59
1	431	72.664175650986	60
1	431	72.664175650986	61
1	431	72.664175650986	62
1	453	73.836474172412	63
1	453	73.836474172412	64
1	453	73.836474172412	65
1	464	75.299536246679	66
1	464	75.299536246679	67
1	464	75.299536246679	68
1	486	78.597679167706	69
1	486	78.597679167706	70
1	486	78.597679167706	71
1	506	80.552889104894	72
1	506	80.552889104894	73
1	506	80.552889104894	74
1	520	82.198616674541	75
1	520	82.198616674541	76
1	520	82.198616674541	77
1	527	84.001833580971	78
1	527	84.001833580971	79
1	527	84.001833580971	80
1	568	89.097459028828	81
1	568	89.097459028828	82
1	568	89.097459028828	83
1	590	92.410449924113	84
1	590	92.410449924113	85
1	590	92.410449924113	86
1	607	93.880391770961	87
1	607	93.880391770961	88
1	607	93.880391770961	89
1	634	99.881747758303	90
1	634	99.881747758303	91
1	634	99.881747758303	92
1	645	101.217603910885	93
1	645	101.217603910885	94
1	645	101.217603910885	95
1	663	102.845551850195	96
1	663	102.845551850195	97
1	663	102.845551850195	98
1	683	107.189341958738	99
1	683	107.189341958738	100
1	683	107.189341958738	101
1	702	109.040738778568	102
1	702	109.040738778568	103
1	702	109.040738778568	104
1	736	113.392809789799	105
1	736	113.392809789799	106
1	736	113.392809789799	107
1	749	115.37913338158	108
1	749	115.37913338158	109
1	749	115.37913338158	110
1	774	120.40392930624	111
1	774	120.40392930624	112
1	774	120.40392930624	113
1	790	122.950491839758	114
1	790	122.950491839758	115
1	790	122.950491839758	116
1	808	124.154658842439	117
1	808	124.154658842439	118
1	808	124.154658842439	119
1	829	126.84000833103	120
1	829	126.84000833103	121
1	829	126.84000833103	122
1	840	128.160309125832	123
1	840	128.160309125832	124
1	840	128.160309125832	125
1	851	129.81771449957	126
1	851	129.81771449957	127
1	851	129.81771449957	128
1	876	131.36659771407	129
1	876	131.36659771407	130
1	876	131.36659771407	131
1	890	134.302697243993	132
1	890	134.302697243993	133
1	890	134.302697243993	134
1	909	135.588157823141	135
1	909	135.588157823141	136
1	909	135.588157823141	137
1	943	139.041734261413	138
1	943	139.041734261413	139
1	943	139.041734261413	140
1	954	140.996257698156	141
1	954	140.996257698156	142
1	954	140.996257698156	143
1	972	142.302097812531	144
1	972	142.302097812531	145
1	972	142.302097812531	146
1	986	144.200367880976	147
1	986	144.200367880976	148
1	986	144.200367880976	149
1	1010	149.642873386552	150
1	1010	149.642873386552	151
1	1010	149.642873386552	152
1	1030	154.035178553873	153
1	1030	154.035178553873	154
1	1030	154.035178553873	155
1	1044	155.087022433928	156
1	1044	155.087022433928	157
1	1044	155.087022433928	158
1	1062	156.547246353419	159
1	1062	156.547246353419	160
1	1062	156.547246353419	161
1	1103	162.470095659457	162
1	1103	162.470095659457	163
1	1103	162.470095659457	164
1	1127	164.958638641741	165
1	1127	164.958638641741	166
1	1127	164.958638641741	167
1	1146	167.917041706438	168
1	1146	167.917041706438	169
1	1146	167.917041706438	170
1	1166	171.617319870778	171
1	1166	171.617319870778	172
1	1166	171.617319870778	173
1	1184	174.629241419334	174
1	1184	174.629241419334	175
1	1184	174.629241419334	176
1	1197	177.878099524407	177
1	1197	177.878099524407	178
1	1197	177.878099524407	179
1	1213	179.265553217381	180
1	1213	179.265553217381	181
1	1213	179.265553217381	182
1	1233	181.926426790786	183
1	1233	181.926426790786	184
1	1233	181.926426790786	185
1	1248	183.906681872684	186
1	1248	183.906681872684	187
1	1248	183.906681872684	188
1	1266	184.948983364643	189
1	1266	184.948983364643	190
1	1266	184.948983364643	191
1	1306	191.332606612795	192
1	1306	191.332606612795	193
1	1306	191.332606612795	194
1	1350	197.731161903998	195
1	1350	197.731161903998	196
1	1350	197.731161903998	197
1	1365	198.93379110202	198
1	1365	198.93379110202	199
1	1365	198.93379110202	200
1	1384	204.057089888379	201
1	1384	204.057089888379	202
1	1384	204.057089888379	203
1	1398	205.759676724525	204
1	1398	205.759676724525	205
1	1398	205.759676724525	206
1	1406	206.945721716463	207
1	1406	206.945721716463	208
1	1406	206.945721716463	209
1	1432	211.373727542719	210
1	1432	211.373727542719	211
1	1432	211.373727542719	212
1	1448	212.99415558393	213
1	1448	212.99415558393	214
1	1448	212.99415558393	215
1	1461	214.592372293728	216
1	1461	214.592372293728	217
1	1461	214.592372293728	218
1	1473	216.55725500054	219
1	1473	216.55725500054	220
1	1473	216.55725500054	221
1	1500	219.999718325417	222
1	1500	219.999718325417	223
1	1500	219.999718325417	224
1	1521	223.271312413836	225
1	1521	223.271312413836	226
1	1521	223.271312413836	227
1	1550	229.786369330092	228
1	1550	229.786369330092	229
1	1550	229.786369330092	230
1	1561	230.926077371034	231
1	1561	230.926077371034	232
1	1561	230.926077371034	233
1	1585	233.41831381355	234
1	1585	233.41831381355	235
1	1585	233.41831381355	236
1	1596	234.79155198593	237
1	1596	234.79155198593	238
1	1596	234.79155198593	239
1	1617	237.348741731946	240
1	1617	237.348741731946	241
1	1617	237.348741731946	242
2	8	0.205690100955	0
2	8	0.205690100955	1
2	8	0.205690100955	2
2	21	3.304176988747	3
2	21	3.304176988747	4
2	21	3.304176988747	5
2	36	4.992588356599	6
2	36	4.992588356599	7
2	36	4.992588356599	8
2	46	6.50790080997	9
2	46	6.50790080997	10
2	46	6.50790080997	11
2	69	8.303925643046	12
2	69	8.303925643046	13
2	69	8.303925643046	14
2	82	10.199298513744	15
2	82	10.199298513744	16
2	82	10.199298513744	17
2	105	17.871197102756	18
2	105	17.871197102756	19
2	105	17.871197102756	20
2	119	19.010178149786	21
2	119	19.010178149786	22
2	119	19.010178149786	23
2	145	22.614831474858	24
2	145	22.614831474858	25
2	145	22.614831474858	26
2	155	24.112123861906	27
2	155	24.112123861906	28
2	155	24.112123861906	29
2	178	27.391557041886	30
2	178	27.391557041886	31
2	178	27.391557041886	32
2	198	30.696285771029	33
2	198	30.696285771029	34
2	198	30.696285771029	35
2	217	32.470137986991	36
2	217	32.470137986991	37
2	217	32.470137986991	38
2	251	39.305549359607	39
2	251	39.305549359607	40
2	251	39.305549359607	41
2	264	40.339964009426	42
2	264	40.339964009426	43
2	264	40.339964009426	44
2	279	43.426535974149	45
2	279	43.426535974149	46
2	279	43.426535974149	47
2	296	45.132257215885	48
2	296	45.132257215885	49
2	296	45.132257215885	50
2	320	50.630991724923	51
2	320	50.630991724923	52
2	320	50.630991724923	53
2	339	54.474866433962	54
2	339	54.474866433962	55
2	339	54.474866433962	56
2	350	55.503160274746	57
2	350	55.503160274746	58
2	350	55.503160274746	59
2	382	62.904196426506	60
2	382	62.904196426506	61
2	382	62.904196426506	62
2	408	66.54613875177	63
2	408	66.54613875177	64
2	408	66.54613875177	65
2	418	67.776095067528	66
2	418	67.776095067528	67
2	418	67.776095067528	68
2	439	72.703735039539	69
2	439	72.703735039539	70
2	439	72.703735039539	71
2	449	73.822095559688	72
2	449	73.822095559688	73
2	449	73.822095559688	74
2	471	75.314047336748	75
2	471	75.314047336748	76
2	471	75.314047336748	77
2	492	78.609976312182	78
2	492	78.609976312182	79
2	492	78.609976312182	80
2	502	80.538163751512	81
2	502	80.538163751512	82
2	502	80.538163751512	83
2	516	82.179777632277	84
2	516	82.179777632277	85
2	516	82.179777632277	86
2	532	84.01490159524	87
2	532	84.01490159524	88
2	532	84.01490159524	89
2	554	87.08942993904	90
2	554	87.08942993904	91
2	554	87.08942993904	92
2	564	89.084309068025	93
2	564	89.084309068025	94
2	564	89.084309068025	95
2	582	90.858953511832	96
2	582	90.858953511832	97
2	582	90.858953511832	98
2	597	92.429191365993	99
2	597	92.429191365993	100
2	597	92.429191365993	101
2	612	93.89668185877	102
2	612	93.89668185877	103
2	612	93.89668185877	104
2	650	101.234857660737	105
2	650	101.234857660737	106
2	650	101.234857660737	107
2	691	107.21859135561	108
2	691	107.21859135561	109
2	691	107.21859135561	110
2	708	109.052954406456	111
2	708	109.052954406456	112
2	708	109.052954406456	113
2	722	110.078053799621	114
2	722	110.078053799621	115
2	722	110.078053799621	116
2	742	113.424640762953	117
2	742	113.424640762953	118
2	742	113.424640762953	119
2	754	115.408963519838	120
2	754	115.408963519838	121
2	754	115.408963519838	122
2	780	120.420199300227	123
2	780	120.420199300227	124
2	780	120.420199300227	125
2	798	122.974349117439	126
2	798	122.974349117439	127
2	798	122.974349117439	128
2	812	124.165523744421	129
2	812	124.165523744421	130
2	812	124.165523744421	131
2	825	126.823873780858	132
2	825	126.823873780858	133
2	825	126.823873780858	134
2	856	129.841773817931	135
2	856	129.841773817931	136
2	856	129.841773817931	137
2	872	131.356220061491	138
2	872	131.356220061491	139
2	872	131.356220061491	140
2	901	134.337380609121	141
2	901	134.337380609121	142
2	901	134.337380609121	143
2	919	135.616090120345	144
2	919	135.616090120345	145
2	919	135.616090120345	146
2	929	137.14534872468	147
2	929	137.14534872468	148
2	929	137.14534872468	149
2	939	139.030407172213	150
2	939	139.030407172213	151
2	939	139.030407172213	152
2	965	141.029759449569	153
2	965	141.029759449569	154
2	965	141.029759449569	155
2	990	144.210980775833	156
2	990	144.210980775833	157
2	990	144.210980775833	158
2	1014	149.654698368098	159
2	1014	149.654698368098	160
2	1014	149.654698368098	161
2	1034	154.04713935183	162
2	1034	154.04713935183	163
2	1034	154.04713935183	164
2	1052	155.106076138007	165
2	1052	155.106076138007	166
2	1052	155.106076138007	167
2	1067	156.562621337344	168
2	1067	156.562621337344	169
2	1067	156.562621337344	170
2	1083	157.88339544698	171
2	1083	157.88339544698	172
2	1083	157.88339544698	173
2	1096	161.5071343987	174
2	1096	161.5071343987	175
2	1096	161.5071343987	176
2	1108	162.486329217608	177
2	1108	162.486329217608	178
2	1108	162.486329217608	179
2	1128	164.958872203761	180
2	1128	164.958872203761	181
2	1128	164.958872203761	182
2	1153	167.936531419541	183
2	1153	167.936531419541	184
2	1153	167.936531419541	185
2	1170	171.630357084344	186
2	1170	171.630357084344	187
2	1170	171.630357084344	188
2	1201	177.899325419759	189
2	1201	177.899325419759	190
2	1201	177.899325419759	191
2	1223	179.293562473666	192
2	1223	179.293562473666	193
2	1223	179.293562473666	194
2	1238	181.942068734028	195
2	1238	181.942068734028	196
2	1238	181.942068734028	197
2	1253	183.92586866473	198
2	1253	183.92586866473	199
2	1253	183.92586866473	200
2	1270	184.963108615079	201
2	1270	184.963108615079	202
2	1270	184.963108615079	203
2	1286	187.430515854899	204
2	1286	187.430515854899	205
2	1286	187.430515854899	206
2	1299	189.629332724577	207
2	1299	189.629332724577	208
2	1299	189.629332724577	209
2	1310	191.358134192559	210
2	1310	191.358134192559	211
2	1310	191.358134192559	212
2	1323	193.239144183301	213
2	1323	193.239144183301	214
2	1323	193.239144183301	215
2	1333	194.327301303262	216
2	1333	194.327301303262	217
2	1333	194.327301303262	218
2	1343	195.777333145027	219
2	1343	195.777333145027	220
2	1343	195.777333145027	221
2	1354	197.741199912888	222
2	1354	197.741199912888	223
2	1354	197.741199912888	224
2	1368	198.941338945117	225
2	1368	198.941338945117	226
2	1368	198.941338945117	227
2	1389	204.068376943942	228
2	1389	204.068376943942	229
2	1389	204.068376943942	230
2	1412	206.956364107582	231
2	1412	206.956364107582	232
2	1412	206.956364107582	233
2	1433	211.374896429085	234
2	1433	211.374896429085	235
2	1433	211.374896429085	236
2	1451	213.001437257771	237
2	1451	213.001437257771	238
2	1451	213.001437257771	239
2	1479	216.575483687307	240
2	1479	216.575483687307	241
2	1479	216.575483687307	242
2	1496	219.973488557858	243
2	1496	219.973488557858	244
2	1496	219.973488557858	245
2	1514	221.809797756002	246
2	1514	221.809797756002	247
2	1514	221.809797756002	248
2	1525	223.283772700465	249
2	1525	223.283772700465	250
2	1525	223.283772700465	251
2	1554	229.800094000922	252
2	1554	229.800094000922	253
2	1554	229.800094000922	254
2	1565	230.937659415532	255
2	1565	230.937659415532	256
2	1565	230.937659415532	257
2	1600	234.805538585871	258
2	1600	234.805538585871	259
2	1600	234.805538585871	260
3	18	3.29041879682	0
3	18	3.29041879682	1
3	43	6.490599532919	2
3	43	6.490599532919	3
3	62	8.293050099984	4
3	62	8.293050099984	5
3	79	10.175508676133	6
3	79	10.175508676133	7
3	116	18.99755130615	8
3	116	18.99755130615	9
3	152	24.09366067872	10
3	152	24.09366067872	11
3	185	27.402554036163	12
3	185	27.402554036163	13
3	194	30.676684783696	14
3	194	30.676684783696	15
3	227	34.206853241865	16
3	227	34.206853241865	17
3	255	39.334002917531	18
3	255	39.334002917531	19
3	261	40.321730762366	20
3	261	40.321730762366	21
3	290	45.111634688904	22
3	290	45.111634688904	23
3	316	50.618249359378	24
3	316	50.618249359378	25
3	330	52.556635443033	26
3	330	52.556635443033	27
3	336	54.45879155484	28
3	336	54.45879155484	29
3	361	56.599260313094	30
3	361	56.599260313094	31
3	377	62.90085038347	32
3	377	62.90085038347	33
3	402	66.530380443123	34
3	402	66.530380443123	35
3	415	67.740994861428	36
3	415	67.740994861428	37
3	446	73.808789987321	38
3	446	73.808789987321	39
3	465	75.303890784957	40
3	465	75.303890784957	41
3	485	78.591088585278	42
3	485	78.591088585278	43
3	499	80.490545316421	44
3	499	80.490545316421	45
3	513	82.166414841844	46
3	513	82.166414841844	47
3	528	84.009844721177	48
3	528	84.009844721177	49
3	545	85.753183604103	50
3	545	85.753183604103	51
3	551	87.07386646	52
3	551	87.07386646	53
3	561	89.063440655185	54
3	561	89.063440655185	55
3	579	90.834218247027	56
3	579	90.834218247027	57
3	589	92.406960416503	58
3	589	92.406960416503	59
3	619	93.910425446011	60
3	619	93.910425446011	61
3	657	101.252710507363	62
3	657	101.252710507363	63
3	677	105.290841501606	64
3	677	105.290841501606	65
3	695	107.2380136177	66
3	695	107.2380136177	67
3	701	109.039189195177	68
3	701	109.039189195177	69
3	719	110.066510557956	70
3	719	110.066510557956	71
3	729	111.877179924384	72
3	729	111.877179924384	73
3	735	113.392386118752	74
3	735	113.392386118752	75
3	761	115.424795767707	76
3	761	115.424795767707	77
3	773	120.396165469101	78
3	773	120.396165469101	79
3	791	122.951375425475	80
3	791	122.951375425475	81
3	822	126.808966364404	82
3	822	126.808966364404	83
3	863	129.857753765248	84
3	863	129.857753765248	85
3	869	131.322714259529	86
3	869	131.322714259529	87
3	891	134.309814444728	88
3	891	134.309814444728	89
3	908	135.582088890707	90
3	908	135.582088890707	91
3	926	137.126540003775	92
3	926	137.126540003775	93
3	936	139.00560923575	94
3	936	139.00560923575	95
3	955	141.000134731824	96
3	955	141.000134731824	97
3	983	144.181109597293	98
3	983	144.181109597293	99
3	1018	149.666446860206	100
3	1018	149.666446860206	101
3	1038	154.083467455665	102
3	1038	154.083467455665	103
3	1045	155.088953580739	104
3	1045	155.088953580739	105
3	1074	156.573200739858	106
3	1074	156.573200739858	107
3	1080	157.864593876854	108
3	1080	157.864593876854	109
3	1093	161.455540154896	110
3	1093	161.455540154896	111
3	1115	162.507533165802	112
3	1115	162.507533165802	113
3	1124	164.93771045232	114
3	1124	164.93771045232	115
3	1145	167.909772690818	116
3	1145	167.909772690818	117
3	1185	174.630430166049	118
3	1185	174.630430166049	119
3	1212	179.262204001039	120
3	1212	179.262204001039	121
3	1252	183.924083085817	122
3	1252	183.924083085817	123
3	1274	184.986936514846	124
3	1274	184.986936514846	125
3	1283	187.41295077897	126
3	1283	187.41295077897	127
3	1296	189.610007462065	128
3	1296	189.610007462065	129
3	1314	191.379735767264	130
3	1314	191.379735767264	131
3	1320	193.224256272622	132
3	1320	193.224256272622	133
3	1330	194.3003842292	134
3	1330	194.3003842292	135
3	1340	195.755140175477	136
3	1340	195.755140175477	137
3	1358	197.755557387507	138
3	1358	197.755557387507	139
3	1364	198.926640893544	140
3	1364	198.926640893544	141
3	1385	204.065501139485	142
3	1385	204.065501139485	143
3	1405	206.940123548198	144
3	1405	206.940123548198	145
3	1429	211.358678923595	146
3	1429	211.358678923595	147
3	1447	212.986624014173	148
3	1447	212.986624014173	149
3	1472	216.54728345781	150
3	1472	216.54728345781	151
3	1493	219.960534839643	152
3	1493	219.960534839643	153
3	1511	221.788294544538	154
3	1511	221.788294544538	155
3	1529	223.302731643941	156
3	1529	223.302731643941	157
3	1535	224.774978254879	158
3	1535	224.774978254879	159
3	1541	226.514421022763	160
3	1541	226.514421022763	161
3	1573	230.957831208777	162
3	1573	230.957831208777	163
3	1579	232.17536358322	164
3	1579	232.17536358322	165
3	1605	234.824341753598	166
3	1605	234.824341753598	167
4	54	6.53173979636	0
4	54	6.53173979636	1
4	54	6.53173979636	2
4	66	8.300819835032	3
4	66	8.300819835032	4
4	66	8.300819835032	5
4	106	17.871905537237	6
4	106	17.871905537237	7
4	106	17.871905537237	8
4	130	20.627060660257	9
4	130	20.627060660257	10
4	130	20.627060660257	11
4	141	22.59293841946	12
4	141	22.59293841946	13
4	141	22.59293841946	14
4	163	24.152714580563	15
4	163	24.152714580563	16
4	163	24.152714580563	17
4	177	27.385429881953	18
4	177	27.385429881953	19
4	177	27.385429881953	20
4	202	30.705352755957	21
4	202	30.705352755957	22
4	202	30.705352755957	23
4	216	32.460332918995	24
4	216	32.460332918995	25
4	216	32.460332918995	26
4	237	36.164541896944	27
4	237	36.164541896944	28
4	237	36.164541896944	29
4	278	43.418180717518	30
4	278	43.418180717518	31
4	278	43.418180717518	32
4	297	45.133435561988	33
4	297	45.133435561988	34
4	297	45.133435561988	35
4	354	55.525553618498	36
4	354	55.525553618498	37
4	354	55.525553618498	38
4	381	62.901823096843	39
4	381	62.901823096843	40
4	381	62.901823096843	41
4	401	66.52248477443	42
4	401	66.52248477443	43
4	401	66.52248477443	44
4	435	72.691726964576	45
4	435	72.691726964576	46
4	435	72.691726964576	47
4	457	73.846715911836	48
4	457	73.846715911836	49
4	457	73.846715911836	50
4	475	75.339502234598	51
4	475	75.339502234598	52
4	475	75.339502234598	53
4	533	84.018133000915	54
4	533	84.018133000915	55
4	533	84.018133000915	56
4	572	89.114960747932	57
4	572	89.114960747932	58
4	572	89.114960747932	59
4	596	92.420904270506	60
4	596	92.420904270506	61
4	596	92.420904270506	62
4	611	93.894625598456	63
4	611	93.894625598456	64
4	611	93.894625598456	65
4	638	99.910831042507	66
4	638	99.910831042507	67
4	638	99.910831042507	68
4	649	101.234088345104	69
4	649	101.234088345104	70
4	649	101.234088345104	71
4	667	102.878484536435	72
4	667	102.878484536435	73
4	667	102.878484536435	74
4	687	107.200381611442	75
4	687	107.200381611442	76
4	687	107.200381611442	77
4	709	109.061896400464	78
4	709	109.061896400464	79
4	709	109.061896400464	80
4	753	115.400931964695	81
4	753	115.400931964695	82
4	753	115.400931964695	83
4	797	122.967648661203	84
4	797	122.967648661203	85
4	797	122.967648661203	86
4	833	126.853257401273	87
4	833	126.853257401273	88
4	833	126.853257401273	89
4	844	128.170494153472	90
4	844	128.170494153472	91
4	844	128.170494153472	92
4	855	129.832737296651	93
4	855	129.832737296651	94
4	855	129.832737296651	95
4	880	131.386234514022	96
4	880	131.386234514022	97
4	880	131.386234514022	98
4	895	134.314270313263	99
4	895	134.314270313263	100
4	895	134.314270313263	101
4	915	135.601032653104	102
4	915	135.601032653104	103
4	915	135.601032653104	104
4	947	139.054329806091	105
4	947	139.054329806091	106
4	947	139.054329806091	107
4	959	141.009907624559	108
4	959	141.009907624559	109
4	959	141.009907624559	110
4	976	142.320695875382	111
4	976	142.320695875382	112
4	976	142.320695875382	113
4	994	144.23212735992	114
4	994	144.23212735992	115
4	994	144.23212735992	116
4	1049	155.097352071	117
4	1049	155.097352071	118
4	1049	155.097352071	119
4	1066	156.559426564881	120
4	1066	156.559426564881	121
4	1066	156.559426564881	122
4	1107	162.481428945541	123
4	1107	162.481428945541	124
4	1107	162.481428945541	125
4	1135	164.974603325731	126
4	1135	164.974603325731	127
4	1135	164.974603325731	128
4	1152	167.932536777255	129
4	1152	167.932536777255	130
4	1152	167.932536777255	131
4	1171	171.63474904299	132
4	1171	171.63474904299	133
4	1171	171.63474904299	134
4	1202	177.904182736624	135
4	1202	177.904182736624	136
4	1202	177.904182736624	137
4	1219	179.28126792951	138
4	1219	179.28126792951	139
4	1219	179.28126792951	140
4	1237	181.941605325135	141
4	1237	181.941605325135	142
4	1237	181.941605325135	143
4	1254	183.930502042629	144
4	1254	183.930502042629	145
4	1254	183.930502042629	146
4	1413	206.964731895549	147
4	1413	206.964731895549	148
4	1413	206.964731895549	149
4	1440	211.41369121051	150
4	1440	211.41369121051	151
4	1440	211.41369121051	152
4	1465	214.615670063424	153
4	1465	214.615670063424	154
4	1465	214.615670063424	155
4	1483	216.612667624265	156
4	1483	216.612667624265	157
4	1483	216.612667624265	158
4	1504	220.036008265122	159
4	1504	220.036008265122	160
4	1504	220.036008265122	161
4	1566	230.941440574389	162
4	1566	230.941440574389	163
4	1566	230.941440574389	164
4	1589	233.431292649216	165
4	1589	233.431292649216	166
4	1589	233.431292649216	167
4	1604	234.818189330562	168
4	1604	234.818189330562	169
4	1604	234.818189330562	170

