version 2
run General-4-20231008-09:20:53-19174
attr configname General
attr datetime 20231008-09:20:53
attr experiment General
attr inifile omnetpp.ini
attr iterationvars ""
attr iterationvarsf ""
attr measurement ""
attr network Network3
attr processid 19174
attr repetition 4
attr replication #4
attr resultdir results
attr runnumber 4
attr seedset 4
param Network3.node[*].transmissionTime "uniform(1s, 2s)"
param Network3.node[*].delayTime "uniform(0.01s, 0.2s)"
param Network3.node[*].processingTime exponential(0.01s)
param Network3.node[0].lossProbability 0
param Network3.node[1].lossProbability 0.5
param Network3.node[2].lossProbability 0.5
param Network3.node[3].lossProbability "0.5 / 2"
param Network3.node[4].lossProbability "0.5 / 2"
param Network3.node[6].lossProbability "0.5 * 2"
param Network3.node[7].lossProbability "0.5 * 2"
param Network3.node[5].lossProbability "0.5 * 3"

vector 0 Network3.node[0] txVector ETV
vector 1 Network3.node[1] txVector ETV
vector 2 Network3.node[3] txVector ETV
vector 3 Network3.node[2] txVector ETV
vector 4 Network3.node[4] txVector ETV
0	1	0.193735669288	0
0	1	0.193735669288	1
0	19	2.094357123985	2
0	19	2.094357123985	3
0	34	3.727320223502	4
0	34	3.727320223502	5
0	37	5.113891505557	6
0	37	5.113891505557	7
0	52	6.757805768787	8
0	52	6.757805768787	9
0	55	8.358548495839	10
0	55	8.358548495839	11
0	70	10.224431250863	12
0	70	10.224431250863	13
0	80	11.769633904718	14
0	80	11.769633904718	15
0	87	13.166533908261	16
0	87	13.166533908261	17
0	90	14.743530877087	18
0	90	14.743530877087	19
0	96	16.246063938284	20
0	96	16.246063938284	21
0	106	17.800804802835	22
0	106	17.800804802835	23
0	109	18.9922512103	24
0	109	18.9922512103	25
0	127	20.067957585597	26
0	127	20.067957585597	27
0	141	21.914679857356	28
0	141	21.914679857356	29
0	155	23.132110146259	30
0	155	23.132110146259	31
0	158	25.082464806189	32
0	158	25.082464806189	33
0	161	26.850222847344	34
0	161	26.850222847344	35
0	164	28.370897248773	36
0	164	28.370897248773	37
0	182	30.054920463976	38
0	182	30.054920463976	39
0	185	31.203647304945	40
0	185	31.203647304945	41
0	196	33.131055915416	42
0	196	33.131055915416	43
0	207	34.749985838695	44
0	207	34.749985838695	45
0	225	35.943224916621	46
0	225	35.943224916621	47
0	228	37.088687244025	48
0	228	37.088687244025	49
0	246	38.848216773397	50
0	246	38.848216773397	51
0	260	40.829426698074	52
0	260	40.829426698074	53
0	278	42.364329298878	54
0	278	42.364329298878	55
0	281	43.652366127506	56
0	281	43.652366127506	57
0	299	45.062001616614	58
0	299	45.062001616614	59
0	302	46.952989356047	60
0	302	46.952989356047	61
0	309	48.087741961856	62
0	309	48.087741961856	63
0	327	49.314722981224	64
0	327	49.314722981224	65
0	345	50.737088927454	66
0	345	50.737088927454	67
0	363	52.142302491623	68
0	363	52.142302491623	69
0	366	53.408099817731	70
0	366	53.408099817731	71
0	372	54.945881487256	72
0	372	54.945881487256	73
0	382	56.570034729935	74
0	382	56.570034729935	75
0	393	57.905884137995	76
0	393	57.905884137995	77
0	407	59.853321271169	78
0	407	59.853321271169	79
0	410	61.316171029269	80
0	410	61.316171029269	81
0	425	62.586536511	82
0	425	62.586536511	83
0	428	64.132942343516	84
0	428	64.132942343516	85
0	431	66.087161437295	86
0	431	66.087161437295	87
0	449	67.195152630483	88
0	449	67.195152630483	89
0	460	68.631323635264	90
0	460	68.631323635264	91
0	474	70.497447820997	92
0	474	70.497447820997	93
0	477	71.88102783045	94
0	477	71.88102783045	95
0	492	73.230758928146	96
0	492	73.230758928146	97
0	506	75.216983652591	98
0	506	75.216983652591	99
0	524	76.601131316192	100
0	524	76.601131316192	101
0	542	77.794646280502	102
0	542	77.794646280502	103
0	548	79.149982911219	104
0	548	79.149982911219	105
0	558	80.51396023241	106
0	558	80.51396023241	107
0	576	82.347937124	108
0	576	82.347937124	109
0	594	83.471153756754	110
0	594	83.471153756754	111
0	597	84.833135873463	112
0	597	84.833135873463	113
0	607	86.813573410885	114
0	607	86.813573410885	115
0	622	88.456512810114	116
0	622	88.456512810114	117
0	632	89.572141464018	118
0	632	89.572141464018	119
0	647	91.336350303293	120
0	647	91.336350303293	121
0	665	92.436827740782	122
0	665	92.436827740782	123
0	668	94.182395971297	124
0	668	94.182395971297	125
0	683	96.027935065712	126
0	683	96.027935065712	127
0	686	97.1058062696	128
0	686	97.1058062696	129
0	696	98.802857708569	130
0	696	98.802857708569	131
0	714	99.950584717012	132
0	714	99.950584717012	133
0	732	100.972054601797	134
0	732	100.972054601797	135
0	735	102.878989719237	136
0	735	102.878989719237	137
0	753	104.04860754978	138
0	753	104.04860754978	139
0	771	105.461074429481	140
0	771	105.461074429481	141
0	789	107.313887976027	142
0	789	107.313887976027	143
0	803	109.161433490143	144
0	803	109.161433490143	145
0	806	110.726290595402	146
0	806	110.726290595402	147
0	809	112.687965188325	148
0	809	112.687965188325	149
0	812	114.304087176603	150
0	812	114.304087176603	151
0	830	115.41197139971	152
0	830	115.41197139971	153
0	848	116.532902662326	154
0	848	116.532902662326	155
0	863	118.170154773314	156
0	863	118.170154773314	157
0	877	119.267005195758	158
0	877	119.267005195758	159
0	891	121.142182623884	160
0	891	121.142182623884	161
0	894	122.262893708339	162
0	894	122.262893708339	163
0	912	123.567235236904	164
0	912	123.567235236904	165
0	930	125.479390579891	166
0	930	125.479390579891	167
0	948	126.970062491866	168
0	948	126.970062491866	169
0	951	128.34028662174	170
0	951	128.34028662174	171
0	965	130.044782978864	172
0	965	130.044782978864	173
0	979	131.332905789055	174
0	979	131.332905789055	175
0	993	132.94099090403	176
0	993	132.94099090403	177
0	1007	134.241543152519	178
0	1007	134.241543152519	179
0	1025	135.767971298574	180
0	1025	135.767971298574	181
0	1035	137.6100111866	182
0	1035	137.6100111866	183
0	1053	139.382326528812	184
0	1053	139.382326528812	185
0	1056	141.157251165863	186
0	1056	141.157251165863	187
0	1074	143.0078556283	188
0	1074	143.0078556283	189
0	1092	144.825603351844	190
0	1092	144.825603351844	191
0	1103	145.961777605032	192
0	1103	145.961777605032	193
0	1121	147.090478099798	194
0	1121	147.090478099798	195
0	1128	149.050214582737	196
0	1128	149.050214582737	197
0	1146	151.040882399454	198
0	1146	151.040882399454	199
0	1153	152.152961212591	200
0	1153	152.152961212591	201
0	1171	153.71952218973	202
0	1171	153.71952218973	203
0	1189	155.165855810893	204
0	1189	155.165855810893	205
0	1196	156.188265086766	206
0	1196	156.188265086766	207
0	1214	157.353526134193	208
0	1214	157.353526134193	209
0	1221	158.375468175542	210
0	1221	158.375468175542	211
0	1224	159.86489290759	212
0	1224	159.86489290759	213
0	1242	161.365608990807	214
0	1242	161.365608990807	215
0	1260	162.836556366095	216
0	1260	162.836556366095	217
0	1274	164.190598082412	218
0	1274	164.190598082412	219
0	1285	165.316084681926	220
0	1285	165.316084681926	221
0	1303	166.448451542444	222
0	1303	166.448451542444	223
0	1321	168.038693338781	224
0	1321	168.038693338781	225
0	1335	169.335712455827	226
0	1335	169.335712455827	227
0	1353	170.467092352602	228
0	1353	170.467092352602	229
0	1367	171.647417585747	230
0	1367	171.647417585747	231
0	1381	173.136878093155	232
0	1381	173.136878093155	233
0	1399	174.263383072484	234
0	1399	174.263383072484	235
0	1409	175.69500954045	236
0	1409	175.69500954045	237
0	1427	176.848368785493	238
0	1427	176.848368785493	239
0	1442	178.158508416181	240
0	1442	178.158508416181	241
0	1445	179.677083333637	242
0	1445	179.677083333637	243
0	1460	181.549105643676	244
0	1460	181.549105643676	245
0	1471	183.115298820342	246
0	1471	183.115298820342	247
0	1474	184.234519461784	248
0	1474	184.234519461784	249
0	1489	185.592034774515	250
0	1489	185.592034774515	251
0	1507	187.030795019501	252
0	1507	187.030795019501	253
0	1521	188.87673934657	254
0	1521	188.87673934657	255
0	1539	190.363092632646	256
0	1539	190.363092632646	257
0	1554	191.597773008196	258
0	1554	191.597773008196	259
0	1572	192.771321491253	260
0	1572	192.771321491253	261
0	1582	193.976655206325	262
0	1582	193.976655206325	263
0	1593	195.276743411001	264
0	1593	195.276743411001	265
0	1608	196.821516569618	266
0	1608	196.821516569618	267
0	1626	197.867747543061	268
0	1626	197.867747543061	269
0	1641	199.821535542521	270
0	1641	199.821535542521	271
0	1655	201.58293614621	272
0	1655	201.58293614621	273
0	1658	203.415184282844	274
0	1658	203.415184282844	275
0	1676	204.647446035321	276
0	1676	204.647446035321	277
0	1687	206.15907003815	278
0	1687	206.15907003815	279
0	1690	207.643028777705	280
0	1690	207.643028777705	281
0	1701	209.518520966552	282
0	1701	209.518520966552	283
0	1719	211.287532293152	284
0	1719	211.287532293152	285
0	1729	212.504992016738	286
0	1729	212.504992016738	287
0	1743	214.238198081877	288
0	1743	214.238198081877	289
0	1746	215.822971117364	290
0	1746	215.822971117364	291
0	1749	217.797341564119	292
0	1749	217.797341564119	293
0	1767	219.326306898993	294
0	1767	219.326306898993	295
0	1770	220.805165902393	296
0	1770	220.805165902393	297
0	1788	222.170177211201	298
0	1788	222.170177211201	299
0	1799	223.45982523836	300
0	1799	223.45982523836	301
0	1817	224.958622489504	302
0	1817	224.958622489504	303
0	1835	226.068991984155	304
0	1835	226.068991984155	305
0	1846	228.035361101998	306
0	1846	228.035361101998	307
0	1856	229.842055037998	308
0	1856	229.842055037998	309
0	1859	231.146753695941	310
0	1859	231.146753695941	311
0	1870	232.665249046784	312
0	1870	232.665249046784	313
0	1876	233.831945203625	314
0	1876	233.831945203625	315
0	1894	235.650027400496	316
0	1894	235.650027400496	317
0	1912	236.902469506868	318
0	1912	236.902469506868	319
0	1915	238.390089119932	320
0	1915	238.390089119932	321
1	4	0.205631491707	0
1	4	0.205631491707	1
1	4	0.205631491707	2
1	22	2.104408849027	3
1	22	2.104408849027	4
1	22	2.104408849027	5
1	40	5.14055487469	6
1	40	5.14055487469	7
1	40	5.14055487469	8
1	58	8.387097285411	9
1	58	8.387097285411	10
1	58	8.387097285411	11
1	83	11.789413335367	12
1	83	11.789413335367	13
1	83	11.789413335367	14
1	119	19.071998296164	15
1	119	19.071998296164	16
1	119	19.071998296164	17
1	131	20.091179187749	18
1	131	20.091179187749	19
1	131	20.091179187749	20
1	147	21.941131365619	21
1	147	21.941131365619	22
1	147	21.941131365619	23
1	167	28.388126174888	24
1	167	28.388126174888	25
1	167	28.388126174888	26
1	188	31.215600254206	27
1	188	31.215600254206	28
1	188	31.215600254206	29
1	199	33.146796521625	30
1	199	33.146796521625	31
1	199	33.146796521625	32
1	210	34.760015147559	33
1	210	34.760015147559	34
1	210	34.760015147559	35
1	234	37.114506605574	36
1	234	37.114506605574	37
1	234	37.114506605574	38
1	256	38.887096413668	39
1	256	38.887096413668	40
1	256	38.887096413668	41
1	264	40.850409573433	42
1	264	40.850409573433	43
1	264	40.850409573433	44
1	284	43.679017595636	45
1	284	43.679017595636	46
1	284	43.679017595636	47
1	305	46.976461813257	48
1	305	46.976461813257	49
1	305	46.976461813257	50
1	312	48.112612909269	51
1	312	48.112612909269	52
1	312	48.112612909269	53
1	333	49.345685026112	54
1	333	49.345685026112	55
1	333	49.345685026112	56
1	355	50.777448309646	57
1	355	50.777448309646	58
1	355	50.777448309646	59
1	385	56.603836375287	60
1	385	56.603836375287	61
1	385	56.603836375287	62
1	396	57.918567875763	63
1	396	57.918567875763	64
1	396	57.918567875763	65
1	413	61.32748611101	66
1	413	61.32748611101	67
1	413	61.32748611101	68
1	434	66.098111055671	69
1	434	66.098111055671	70
1	434	66.098111055671	71
1	452	67.21851285964	72
1	452	67.21851285964	73
1	452	67.21851285964	74
1	464	68.649932953975	75
1	464	68.649932953975	76
1	464	68.649932953975	77
1	480	71.893055358915	78
1	480	71.893055358915	79
1	480	71.893055358915	80
1	495	73.24186282892	81
1	495	73.24186282892	82
1	495	73.24186282892	83
1	509	75.228819638837	84
1	509	75.228819638837	85
1	509	75.228819638837	86
1	527	76.611346922283	87
1	527	76.611346922283	88
1	527	76.611346922283	89
1	562	80.52951621645	90
1	562	80.52951621645	91
1	562	80.52951621645	92
1	582	82.381738505388	93
1	582	82.381738505388	94
1	582	82.381738505388	95
1	610	86.824756415255	96
1	610	86.824756415255	97
1	610	86.824756415255	98
1	635	89.582456811012	99
1	635	89.582456811012	100
1	635	89.582456811012	101
1	657	91.378706454943	102
1	657	91.378706454943	103
1	657	91.378706454943	104
1	671	94.197768391567	105
1	671	94.197768391567	106
1	671	94.197768391567	107
1	699	98.813493808393	108
1	699	98.813493808393	109
1	699	98.813493808393	110
1	718	99.96785686163	111
1	718	99.96785686163	112
1	718	99.96785686163	113
1	738	102.892656181501	114
1	738	102.892656181501	115
1	738	102.892656181501	116
1	756	104.061794359449	117
1	756	104.061794359449	118
1	756	104.061794359449	119
1	781	105.513801543166	120
1	781	105.513801543166	121
1	781	105.513801543166	122
1	792	107.326972198948	123
1	792	107.326972198948	124
1	792	107.326972198948	125
1	815	114.321376995461	126
1	815	114.321376995461	127
1	815	114.321376995461	128
1	840	115.461033947495	129
1	840	115.461033947495	130
1	840	115.461033947495	131
1	851	116.556277006255	132
1	851	116.556277006255	133
1	851	116.556277006255	134
1	867	118.186772964127	135
1	867	118.186772964127	136
1	867	118.186772964127	137
1	880	119.288023399314	138
1	880	119.288023399314	139
1	880	119.288023399314	140
1	898	122.287056147968	141
1	898	122.287056147968	142
1	898	122.287056147968	143
1	916	123.586046484957	144
1	916	123.586046484957	145
1	916	123.586046484957	146
1	940	125.537184339616	147
1	940	125.537184339616	148
1	940	125.537184339616	149
1	954	128.351001956785	150
1	954	128.351001956785	151
1	954	128.351001956785	152
1	968	130.059467496926	153
1	968	130.059467496926	154
1	968	130.059467496926	155
1	989	131.422592241174	156
1	989	131.422592241174	157
1	989	131.422592241174	158
1	1003	133.033231978729	159
1	1003	133.033231978729	160
1	1003	133.033231978729	161
1	1010	134.252117418878	162
1	1010	134.252117418878	163
1	1010	134.252117418878	164
1	1045	137.671219145058	165
1	1045	137.671219145058	166
1	1045	137.671219145058	167
1	1062	141.194377367458	168
1	1062	141.194377367458	169
1	1062	141.194377367458	170
1	1077	143.018261863775	171
1	1077	143.018261863775	172
1	1077	143.018261863775	173
1	1095	144.859851570413	174
1	1095	144.859851570413	175
1	1095	144.859851570413	176
1	1107	145.981299202705	177
1	1107	145.981299202705	178
1	1107	145.981299202705	179
1	1124	147.100960191862	180
1	1124	147.100960191862	181
1	1124	147.100960191862	182
1	1138	149.106223381955	183
1	1138	149.106223381955	184
1	1138	149.106223381955	185
1	1149	151.063626165444	186
1	1149	151.063626165444	187
1	1149	151.063626165444	188
1	1156	152.169936623796	189
1	1156	152.169936623796	190
1	1156	152.169936623796	191
1	1174	153.742647203706	192
1	1174	153.742647203706	193
1	1174	153.742647203706	194
1	1192	155.194370440861	195
1	1192	155.194370440861	196
1	1192	155.194370440861	197
1	1206	156.256686528971	198
1	1206	156.256686528971	199
1	1206	156.256686528971	200
1	1217	157.368729220136	201
1	1217	157.368729220136	202
1	1217	157.368729220136	203
1	1227	159.905926387325	204
1	1227	159.905926387325	205
1	1227	159.905926387325	206
1	1252	161.402016025707	207
1	1252	161.402016025707	208
1	1252	161.402016025707	209
1	1263	162.870383770049	210
1	1263	162.870383770049	211
1	1263	162.870383770049	212
1	1277	164.202780213798	213
1	1277	164.202780213798	214
1	1277	164.202780213798	215
1	1289	165.33656924374	216
1	1289	165.33656924374	217
1	1289	165.33656924374	218
1	1306	166.472624140787	219
1	1306	166.472624140787	220
1	1306	166.472624140787	221
1	1324	168.049338525128	222
1	1324	168.049338525128	223
1	1324	168.049338525128	224
1	1338	169.360931551344	225
1	1338	169.360931551344	226
1	1338	169.360931551344	227
1	1356	170.479045372257	228
1	1356	170.479045372257	229
1	1356	170.479045372257	230
1	1377	171.700732752195	231
1	1377	171.700732752195	232
1	1377	171.700732752195	233
1	1385	173.159530422576	234
1	1385	173.159530422576	235
1	1385	173.159530422576	236
1	1419	175.743239799031	237
1	1419	175.743239799031	238
1	1419	175.743239799031	239
1	1430	176.873976641042	240
1	1430	176.873976641042	241
1	1430	176.873976641042	242
1	1448	179.687355538584	243
1	1448	179.687355538584	244
1	1448	179.687355538584	245
1	1463	181.559881257354	246
1	1463	181.559881257354	247
1	1463	181.559881257354	248
1	1477	184.256070976073	249
1	1477	184.256070976073	250
1	1477	184.256070976073	251
1	1492	185.602425655702	252
1	1492	185.602425655702	253
1	1492	185.602425655702	254
1	1511	187.051190228022	255
1	1511	187.051190228022	256
1	1511	187.051190228022	257
1	1524	188.903384013369	258
1	1524	188.903384013369	259
1	1524	188.903384013369	260
1	1542	190.381899299103	261
1	1542	190.381899299103	262
1	1542	190.381899299103	263
1	1558	191.614939453044	264
1	1558	191.614939453044	265
1	1558	191.614939453044	266
1	1575	192.78152935981	267
1	1575	192.78152935981	268
1	1575	192.78152935981	269
1	1585	194.019536003438	270
1	1585	194.019536003438	271
1	1585	194.019536003438	272
1	1596	195.290048672793	273
1	1596	195.290048672793	274
1	1596	195.290048672793	275
1	1611	196.835183953269	276
1	1611	196.835183953269	277
1	1611	196.835183953269	278
1	1629	197.886322523061	279
1	1629	197.886322523061	280
1	1629	197.886322523061	281
1	1644	199.843551340069	282
1	1644	199.843551340069	283
1	1644	199.843551340069	284
1	1661	203.42818504925	285
1	1661	203.42818504925	286
1	1661	203.42818504925	287
1	1679	204.679328718337	288
1	1679	204.679328718337	289
1	1679	204.679328718337	290
1	1693	207.659724887219	291
1	1693	207.659724887219	292
1	1693	207.659724887219	293
1	1711	209.601474430545	294
1	1711	209.601474430545	295
1	1711	209.601474430545	296
1	1735	212.553966578045	297
1	1735	212.553966578045	298
1	1735	212.553966578045	299
1	1759	217.848694114763	300
1	1759	217.848694114763	301
1	1759	217.848694114763	302
1	1773	220.815377872282	303
1	1773	220.815377872282	304
1	1773	220.815377872282	305
1	1791	222.184362626633	306
1	1791	222.184362626633	307
1	1791	222.184362626633	308
1	1802	223.4764037181	309
1	1802	223.4764037181	310
1	1802	223.4764037181	311
1	1821	224.983991677752	312
1	1821	224.983991677752	313
1	1821	224.983991677752	314
1	1838	226.091327660601	315
1	1838	226.091327660601	316
1	1838	226.091327660601	317
1	1862	231.162685372965	318
1	1862	231.162685372965	319
1	1862	231.162685372965	320
1	1879	233.851753557598	321
1	1879	233.851753557598	322
1	1879	233.851753557598	323
1	1898	235.670169764736	324
1	1898	235.670169764736	325
1	1898	235.670169764736	326
2	8	0.218066095948	0
2	8	0.218066095948	1
2	8	0.218066095948	2
2	27	2.123675592003	3
2	27	2.123675592003	4
2	27	2.123675592003	5
2	48	5.179559794706	6
2	48	5.179559794706	7
2	48	5.179559794706	8
2	62	8.415130953601	9
2	62	8.415130953601	10
2	62	8.415130953601	11
2	123	19.105492557431	12
2	123	19.105492557431	13
2	123	19.105492557431	14
2	174	28.413579223341	15
2	174	28.413579223341	16
2	174	28.413579223341	17
2	192	31.231998618358	18
2	192	31.231998618358	19
2	192	31.231998618358	20
2	203	33.15799010566	21
2	203	33.15799010566	22
2	203	33.15799010566	23
2	215	34.781368493372	24
2	215	34.781368493372	25
2	215	34.781368493372	26
2	238	37.126679521526	27
2	238	37.126679521526	28
2	238	37.126679521526	29
2	274	40.87047636496	30
2	274	40.87047636496	31
2	274	40.87047636496	32
2	293	43.709450014231	33
2	293	43.709450014231	34
2	293	43.709450014231	35
2	320	48.128492507967	36
2	320	48.128492507967	37
2	320	48.128492507967	38
2	337	49.356638143921	39
2	337	49.356638143921	40
2	337	49.356638143921	41
2	359	50.788533021361	42
2	359	50.788533021361	43
2	359	50.788533021361	44
2	418	61.345767838874	45
2	418	61.345767838874	46
2	418	61.345767838874	47
2	439	66.111576332552	48
2	439	66.111576332552	49
2	439	66.111576332552	50
2	470	68.661268182973	51
2	470	68.661268182973	52
2	470	68.661268182973	53
2	484	71.904860532069	54
2	484	71.904860532069	55
2	484	71.904860532069	56
2	513	75.23920439863	57
2	513	75.23920439863	58
2	513	75.23920439863	59
2	532	76.622942691089	60
2	532	76.622942691089	61
2	532	76.622942691089	62
2	572	80.558236777002	63
2	572	80.558236777002	64
2	572	80.558236777002	65
2	586	82.392941632899	66
2	586	82.392941632899	67
2	586	82.392941632899	68
2	614	86.834769983169	69
2	614	86.834769983169	70
2	614	86.834769983169	71
2	640	89.598170998137	72
2	640	89.598170998137	73
2	640	89.598170998137	74
2	661	91.402331041537	75
2	661	91.402331041537	76
2	661	91.402331041537	77
2	679	94.227252049702	78
2	679	94.227252049702	79
2	679	94.227252049702	80
2	704	98.824871606667	81
2	704	98.824871606667	82
2	704	98.824871606667	83
2	724	99.985414192382	84
2	724	99.985414192382	85
2	724	99.985414192382	86
2	743	102.914532376614	87
2	743	102.914532376614	88
2	743	102.914532376614	89
2	760	104.075415264492	90
2	760	104.075415264492	91
2	760	104.075415264492	92
2	785	105.531969969239	93
2	785	105.531969969239	94
2	785	105.531969969239	95
2	826	114.356058879004	96
2	826	114.356058879004	97
2	826	114.356058879004	98
2	844	115.495372249641	99
2	844	115.495372249641	100
2	844	115.495372249641	101
2	859	116.580744096633	102
2	859	116.580744096633	103
2	859	116.580744096633	104
2	908	122.322389577304	105
2	908	122.322389577304	106
2	908	122.322389577304	107
2	926	123.629062312614	108
2	926	123.629062312614	109
2	926	123.629062312614	110
2	944	125.563795982405	111
2	944	125.563795982405	112
2	944	125.563795982405	113
2	958	128.36351546755	114
2	958	128.36351546755	115
2	958	128.36351546755	116
2	1017	134.268269910948	117
2	1017	134.268269910948	118
2	1017	134.268269910948	119
2	1049	137.686517543447	120
2	1049	137.686517543447	121
2	1049	137.686517543447	122
2	1067	141.215985838081	123
2	1067	141.215985838081	124
2	1067	141.215985838081	125
2	1082	143.028270934639	126
2	1082	143.028270934639	127
2	1082	143.028270934639	128
2	1099	144.889378799589	129
2	1099	144.889378799589	130
2	1099	144.889378799589	131
2	1117	146.001916324295	132
2	1117	146.001916324295	133
2	1117	146.001916324295	134
2	1142	149.130844869036	135
2	1142	149.130844869036	136
2	1142	149.130844869036	137
2	1164	152.198600680763	138
2	1164	152.198600680763	139
2	1164	152.198600680763	140
2	1181	153.754470151588	141
2	1181	153.754470151588	142
2	1181	153.754470151588	143
2	1210	156.280363523142	144
2	1210	156.280363523142	145
2	1210	156.280363523142	146
2	1232	159.920359658508	147
2	1232	159.920359658508	148
2	1232	159.920359658508	149
2	1256	161.415643907983	150
2	1256	161.415643907983	151
2	1256	161.415643907983	152
2	1281	164.220415900184	153
2	1281	164.220415900184	154
2	1281	164.220415900184	155
2	1295	165.347041583045	156
2	1295	165.347041583045	157
2	1295	165.347041583045	158
2	1310	166.485247848108	159
2	1310	166.485247848108	160
2	1310	166.485247848108	161
2	1346	169.376022393821	162
2	1346	169.376022393821	163
2	1346	169.376022393821	164
2	1392	173.170193600519	165
2	1392	173.170193600519	166
2	1392	173.170193600519	167
2	1423	175.7647025485	168
2	1423	175.7647025485	169
2	1423	175.7647025485	170
2	1435	176.901147701791	171
2	1435	176.901147701791	172
2	1435	176.901147701791	173
2	1453	179.705372890358	174
2	1453	179.705372890358	175
2	1453	179.705372890358	176
2	1467	181.573205472389	177
2	1467	181.573205472389	178
2	1467	181.573205472389	179
2	1482	184.27008503607	180
2	1482	184.27008503607	181
2	1482	184.27008503607	182
2	1503	185.644848352921	183
2	1503	185.644848352921	184
2	1503	185.644848352921	185
2	1529	188.916340017694	186
2	1529	188.916340017694	187
2	1529	188.916340017694	188
2	1546	190.401657230161	189
2	1546	190.401657230161	190
2	1546	190.401657230161	191
2	1565	191.625989515333	192
2	1565	191.625989515333	193
2	1565	191.625989515333	194
2	1589	194.03205825773	195
2	1589	194.03205825773	196
2	1589	194.03205825773	197
2	1600	195.316996183114	198
2	1600	195.316996183114	199
2	1600	195.316996183114	200
2	1622	196.863986449927	201
2	1622	196.863986449927	202
2	1622	196.863986449927	203
2	1634	197.901549703825	204
2	1634	197.901549703825	205
2	1634	197.901549703825	206
2	1666	203.438319318341	207
2	1666	203.438319318341	208
2	1666	203.438319318341	209
2	1697	207.670127994771	210
2	1697	207.670127994771	211
2	1697	207.670127994771	212
2	1715	209.624421067432	213
2	1715	209.624421067432	214
2	1715	209.624421067432	215
2	1763	217.861838216995	216
2	1763	217.861838216995	217
2	1763	217.861838216995	218
2	1784	220.840088470753	219
2	1784	220.840088470753	220
2	1784	220.840088470753	221
2	1795	222.196925466088	222
2	1795	222.196925466088	223
2	1795	222.196925466088	224
2	1806	223.491466124168	225
2	1806	223.491466124168	226
2	1806	223.491466124168	227
2	1827	225.007890932355	228
2	1827	225.007890932355	229
2	1827	225.007890932355	230
2	1842	226.105701707442	231
2	1842	226.105701707442	232
2	1842	226.105701707442	233
2	1866	231.184798177763	234
2	1866	231.184798177763	235
2	1866	231.184798177763	236
2	1888	233.882254632289	237
2	1888	233.882254632289	238
2	1888	233.882254632289	239
2	1904	235.687963346742	240
2	1904	235.687963346742	241
2	1904	235.687963346742	242
3	9	0.223088800394	0
3	9	0.223088800394	1
3	73	10.236424551848	2
3	73	10.236424551848	3
3	93	14.757974491249	4
3	93	14.757974491249	5
3	99	16.256549597875	6
3	99	16.256549597875	7
3	112	19.027308392141	8
3	112	19.027308392141	9
3	130	20.089963405392	10
3	130	20.089963405392	11
3	144	21.925737690373	12
3	144	21.925737690373	13
3	168	28.38937519405	14
3	168	28.38937519405	15
3	214	34.780924721179	16
3	214	34.780924721179	17
3	231	37.10394032362	18
3	231	37.10394032362	19
3	249	38.859098338256	20
3	249	38.859098338256	21
3	263	40.84524885287	22
3	263	40.84524885287	23
3	292	43.707741230312	24
3	292	43.707741230312	25
3	313	48.113237563431	26
3	313	48.113237563431	27
3	330	49.333805162447	28
3	330	49.333805162447	29
3	348	50.7472551373	30
3	348	50.7472551373	31
3	369	53.433680258107	32
3	369	53.433680258107	33
3	375	54.960851833144	34
3	375	54.960851833144	35
3	397	57.921088844775	36
3	397	57.921088844775	37
3	435	66.104658917495	38
3	435	66.104658917495	39
3	463	68.644601089924	40
3	463	68.644601089924	41
3	503	73.282839125369	42
3	503	73.282839125369	43
3	521	75.26043530585	44
3	521	75.26043530585	45
3	528	76.619900090379	46
3	528	76.619900090379	47
3	545	77.831758226247	48
3	545	77.831758226247	49
3	551	79.181303033646	50
3	551	79.181303033646	51
3	561	80.526069047799	52
3	561	80.526069047799	53
3	579	82.369240238414	54
3	579	82.369240238414	55
3	600	84.855999730576	56
3	600	84.855999730576	57
3	625	88.49046227975	58
3	625	88.49046227975	59
3	650	91.347006759955	60
3	650	91.347006759955	61
3	689	97.118612432936	62
3	689	97.118612432936	63
3	700	98.823327619499	64
3	700	98.823327619499	65
3	717	99.967254972681	66
3	717	99.967254972681	67
3	742	102.904620241855	68
3	742	102.904620241855	69
3	768	104.119383517179	70
3	768	104.119383517179	71
3	774	105.48301724723	72
3	774	105.48301724723	73
3	793	107.333240335602	74
3	793	107.333240335602	75
3	816	114.32462838692	76
3	816	114.32462838692	77
3	833	115.432628042552	78
3	833	115.432628042552	79
3	866	118.180614487049	80
3	866	118.180614487049	81
3	881	119.296896111467	82
3	881	119.296896111467	83
3	897	122.279068549834	84
3	897	122.279068549834	85
3	915	123.580719003913	86
3	915	123.580719003913	87
3	933	125.505464300772	88
3	933	125.505464300772	89
3	962	128.385890444202	90
3	962	128.385890444202	91
3	969	130.061911738016	92
3	969	130.061911738016	93
3	982	131.344594374619	94
3	982	131.344594374619	95
3	996	132.962593630524	96
3	996	132.962593630524	97
3	1011	134.254651918102	98
3	1011	134.254651918102	99
3	1028	135.78111711542	100
3	1028	135.78111711542	101
3	1038	137.621302867982	102
3	1038	137.621302867982	103
3	1059	141.168680498677	104
3	1059	141.168680498677	105
3	1078	143.019792631042	106
3	1078	143.019792631042	107
3	1106	145.9763741845	108
3	1106	145.9763741845	109
3	1131	149.064200070235	110
3	1131	149.064200070235	111
3	1157	152.175841730236	112
3	1157	152.175841730236	113
3	1175	153.743474081439	114
3	1175	153.743474081439	115
3	1199	156.213737573115	116
3	1199	156.213737573115	117
3	1239	159.930757145312	118
3	1239	159.930757145312	119
3	1245	161.380205305552	120
3	1245	161.380205305552	121
3	1271	162.896898757719	122
3	1271	162.896898757719	123
3	1288	165.327638448134	124
3	1288	165.327638448134	125
3	1318	166.526247513328	126
3	1318	166.526247513328	127
3	1325	168.056594078797	128
3	1325	168.056594078797	129
3	1339	169.363891849478	130
3	1339	169.363891849478	131
3	1360	170.489812624553	132
3	1360	170.489812624553	133
3	1370	171.66063775265	134
3	1370	171.66063775265	135
3	1384	173.154058407178	136
3	1384	173.154058407178	137
3	1402	174.283819933426	138
3	1402	174.283819933426	139
3	1412	175.707811952104	140
3	1412	175.707811952104	141
3	1500	185.628711083601	142
3	1500	185.628711083601	143
3	1510	187.042304203723	144
3	1510	187.042304203723	145
3	1536	188.942901569188	146
3	1536	188.942901569188	147
3	1557	191.610075660933	148
3	1557	191.610075660933	149
3	1579	192.793334382955	150
3	1579	192.793334382955	151
3	1615	196.847488307312	152
3	1615	196.847488307312	153
3	1645	199.847626614067	154
3	1645	199.847626614067	155
3	1662	203.435640447124	156
3	1662	203.435640447124	157
3	1704	209.530208779847	158
3	1704	209.530208779847	159
3	1722	211.297957991472	160
3	1722	211.297957991472	161
3	1732	212.524387923439	162
3	1732	212.524387923439	163
3	1752	217.814828195876	164
3	1752	217.814828195876	165
3	1774	220.823701403643	166
3	1774	220.823701403643	167
3	1814	223.509378240386	168
3	1814	223.509378240386	169
3	1820	224.978763799184	170
3	1820	224.978763799184	171
3	1849	228.051113843114	172
3	1849	228.051113843114	173
3	1873	232.678095502643	174
3	1873	232.678095502643	175
3	1887	233.878894188635	176
3	1887	233.878894188635	177
3	1897	235.662028814069	178
3	1897	235.662028814069	179
3	1918	238.401793387481	180
3	1918	238.401793387481	181
4	10	0.227595799025	0
4	10	0.227595799025	1
4	10	0.227595799025	2
4	26	2.118895127763	3
4	26	2.118895127763	4
4	26	2.118895127763	5
4	44	5.150960807002	6
4	44	5.150960807002	7
4	44	5.150960807002	8
4	63	8.417523096554	9
4	63	8.417523096554	10
4	63	8.417523096554	11
4	76	10.251557763239	12
4	76	10.251557763239	13
4	76	10.251557763239	14
4	102	16.27105715592	15
4	102	16.27105715592	16
4	102	16.27105715592	17
4	115	19.041101593326	18
4	115	19.041101593326	19
4	115	19.041101593326	20
4	134	20.100848019986	21
4	134	20.100848019986	22
4	134	20.100848019986	23
4	151	21.958898278334	24
4	151	21.958898278334	25
4	151	21.958898278334	26
4	175	28.415912757511	27
4	175	28.415912757511	28
4	175	28.415912757511	29
4	216	34.783220165673	30
4	216	34.783220165673	31
4	216	34.783220165673	32
4	242	37.140777171432	33
4	242	37.140777171432	34
4	242	37.140777171432	35
4	252	38.869259340169	36
4	252	38.869259340169	37
4	252	38.869259340169	38
4	267	40.856696170514	39
4	267	40.856696170514	40
4	267	40.856696170514	41
4	288	43.695744947683	42
4	288	43.695744947683	43
4	288	43.695744947683	44
4	319	48.126766948933	45
4	319	48.126766948933	46
4	319	48.126766948933	47
4	338	49.360284296818	48
4	338	49.360284296818	49
4	338	49.360284296818	50
4	351	50.75976003972	51
4	351	50.75976003972	52
4	351	50.75976003972	53
4	378	54.984113955268	54
4	378	54.984113955268	55
4	378	54.984113955268	56
4	389	56.619078562223	57
4	389	56.619078562223	58
4	389	56.619078562223	59
4	403	57.931191215672	60
4	403	57.931191215672	61
4	403	57.931191215672	62
4	417	61.340161207439	63
4	417	61.340161207439	64
4	417	61.340161207439	65
4	445	66.128908693154	66
4	445	66.128908693154	67
4	445	66.128908693154	68
4	456	67.233440266619	69
4	456	67.233440266619	70
4	456	67.233440266619	71
4	485	71.907400301676	72
4	485	71.907400301676	73
4	485	71.907400301676	74
4	499	73.272662233335	75
4	499	73.272662233335	76
4	499	73.272662233335	77
4	514	75.247837309343	78
4	514	75.247837309343	79
4	514	75.247837309343	80
4	535	76.632290837577	81
4	535	76.632290837577	82
4	535	76.632290837577	83
4	554	79.212240994958	84
4	554	79.212240994958	85
4	554	79.212240994958	86
4	565	80.538387902105	87
4	565	80.538387902105	88
4	565	80.538387902105	89
4	590	82.41183804593	90
4	590	82.41183804593	91
4	590	82.41183804593	92
4	603	84.876368742955	93
4	603	84.876368742955	94
4	603	84.876368742955	95
4	615	86.842326381151	96
4	615	86.842326381151	97
4	615	86.842326381151	98
4	628	88.500737023656	99
4	628	88.500737023656	100
4	628	88.500737023656	101
4	639	89.595335524006	102
4	639	89.595335524006	103
4	639	89.595335524006	104
4	653	91.363634003833	105
4	653	91.363634003833	106
4	653	91.363634003833	107
4	675	94.216020611213	108
4	675	94.216020611213	109
4	675	94.216020611213	110
4	692	97.131537537048	111
4	692	97.131537537048	112
4	692	97.131537537048	113
4	710	98.837394159153	114
4	710	98.837394159153	115
4	710	98.837394159153	116
4	728	99.99574516205	117
4	728	99.99574516205	118
4	728	99.99574516205	119
4	746	102.918926906483	120
4	746	102.918926906483	121
4	746	102.918926906483	122
4	764	104.108982344214	123
4	764	104.108982344214	124
4	764	104.108982344214	125
4	777	105.499890047304	126
4	777	105.499890047304	127
4	777	105.499890047304	128
4	799	107.365290918849	129
4	799	107.365290918849	130
4	799	107.365290918849	131
4	822	114.339870964064	132
4	822	114.339870964064	133
4	822	114.339870964064	134
4	836	115.448416842402	135
4	836	115.448416842402	136
4	836	115.448416842402	137
4	855	116.56828685267	138
4	855	116.56828685267	139
4	855	116.56828685267	140
4	873	118.209156280589	141
4	873	118.209156280589	142
4	873	118.209156280589	143
4	887	119.309493198534	144
4	887	119.309493198534	145
4	887	119.309493198534	146
4	901	122.289574560495	147
4	901	122.289574560495	148
4	901	122.289574560495	149
4	922	123.610921218097	150
4	922	123.610921218097	151
4	922	123.610921218097	152
4	936	125.520361563291	153
4	936	125.520361563291	154
4	936	125.520361563291	155
4	975	130.08583499806	156
4	975	130.08583499806	157
4	975	130.08583499806	158
4	985	131.395258543965	159
4	985	131.395258543965	160
4	985	131.395258543965	161
4	999	132.98781132735	162
4	999	132.98781132735	163
4	999	132.98781132735	164
4	1018	134.270723134177	165
4	1018	134.270723134177	166
4	1018	134.270723134177	167
4	1031	135.845817664663	168
4	1031	135.845817664663	169
4	1031	135.845817664663	170
4	1041	137.645595821677	171
4	1041	137.645595821677	172
4	1041	137.645595821677	173
4	1066	141.211137625753	174
4	1066	141.211137625753	175
4	1066	141.211137625753	176
4	1085	143.034694670884	177
4	1085	143.034694670884	178
4	1085	143.034694670884	179
4	1110	145.987177693038	180
4	1110	145.987177693038	181
4	1110	145.987177693038	182
4	1134	149.080623928101	183
4	1134	149.080623928101	184
4	1134	149.080623928101	185
4	1163	152.191924088861	186
4	1163	152.191924088861	187
4	1163	152.191924088861	188
4	1182	153.758397222712	189
4	1182	153.758397222712	190
4	1182	153.758397222712	191
4	1202	156.235351928788	192
4	1202	156.235351928788	193
4	1202	156.235351928788	194
4	1231	159.917910044397	195
4	1231	159.917910044397	196
4	1231	159.917910044397	197
4	1248	161.39052941554	198
4	1248	161.39052941554	199
4	1248	161.39052941554	200
4	1267	162.882057992473	201
4	1267	162.882057992473	202
4	1267	162.882057992473	203
4	1299	165.358930002092	204
4	1299	165.358930002092	205
4	1299	165.358930002092	206
4	1314	166.502378069339	207
4	1314	166.502378069339	208
4	1314	166.502378069339	209
4	1331	168.068085470365	210
4	1331	168.068085470365	211
4	1331	168.068085470365	212
4	1345	169.375134047805	213
4	1345	169.375134047805	214
4	1345	169.375134047805	215
4	1363	170.501267126029	216
4	1363	170.501267126029	217
4	1363	170.501267126029	218
4	1373	171.68102500735	219
4	1373	171.68102500735	220
4	1373	171.68102500735	221
4	1388	173.166075702714	222
4	1388	173.166075702714	223
4	1388	173.166075702714	224
4	1405	174.294060272817	225
4	1405	174.294060272817	226
4	1405	174.294060272817	227
4	1415	175.726101164172	228
4	1415	175.726101164172	229
4	1415	175.726101164172	230
4	1434	176.896848131007	231
4	1434	176.896848131007	232
4	1434	176.896848131007	233
4	1452	179.70467859543	234
4	1452	179.70467859543	235
4	1452	179.70467859543	236
4	1481	184.267139121813	237
4	1481	184.267139121813	238
4	1481	184.267139121813	239
4	1496	185.613723502298	240
4	1496	185.613723502298	241
4	1496	185.613723502298	242
4	1514	187.061125116349	243
4	1514	187.061125116349	244
4	1514	187.061125116349	245
4	1528	188.913621110512	246
4	1528	188.913621110512	247
4	1528	188.913621110512	248
4	1547	190.402833339126	249
4	1547	190.402833339126	250
4	1547	190.402833339126	251
4	1561	191.620321640207	252
4	1561	191.620321640207	253
4	1561	191.620321640207	254
4	1601	195.317276159802	255
4	1601	195.317276159802	256
4	1601	195.317276159802	257
4	1616	196.848318268926	258
4	1616	196.848318268926	259
4	1616	196.848318268926	260
4	1633	197.89758121757	261
4	1633	197.89758121757	262
4	1633	197.89758121757	263
4	1651	199.880419065951	264
4	1651	199.880419065951	265
4	1651	199.880419065951	266
4	1672	203.466485496377	267
4	1672	203.466485496377	268
4	1672	203.466485496377	269
4	1683	204.740678104421	270
4	1683	204.740678104421	271
4	1683	204.740678104421	272
4	1707	209.573865454136	273
4	1707	209.573865454136	274
4	1707	209.573865454136	275
4	1725	211.311203816175	276
4	1725	211.311203816175	277
4	1725	211.311203816175	278
4	1739	212.569817481723	279
4	1739	212.569817481723	280
4	1739	212.569817481723	281
4	1755	217.827915350277	282
4	1755	217.827915350277	283
4	1755	217.827915350277	284
4	1778	220.827752504679	285
4	1778	220.827752504679	286
4	1778	220.827752504679	287
4	1807	223.498926120382	288
4	1807	223.498926120382	289
4	1807	223.498926120382	290
4	1828	225.009600128461	291
4	1828	225.009600128461	292
4	1828	225.009600128461	293
4	1852	228.073779659799	294
4	1852	228.073779659799	295
4	1852	228.073779659799	296
4	1883	233.867555395627	297
4	1883	233.867555395627	298
4	1883	233.867555395627	299
4	1905	235.69004983559	300
4	1905	235.69004983559	301
4	1905	235.69004983559	302
4	1921	238.419668016924	303
4	1921	238.419668016924	304
4	1921	238.419668016924	305

