version 2
run General-2-20231008-09:20:52-19174
attr configname General
attr datetime 20231008-09:20:52
attr experiment General
attr inifile omnetpp.ini
attr iterationvars ""
attr iterationvarsf ""
attr measurement ""
attr network Network3
attr processid 19174
attr repetition 2
attr replication #2
attr resultdir results
attr runnumber 2
attr seedset 2
param Network3.node[*].transmissionTime "uniform(1s, 2s)"
param Network3.node[*].delayTime "uniform(0.01s, 0.2s)"
param Network3.node[*].processingTime exponential(0.01s)
param Network3.node[0].lossProbability 0
param Network3.node[1].lossProbability 0.5
param Network3.node[2].lossProbability 0.5
param Network3.node[3].lossProbability "0.5 / 2"
param Network3.node[4].lossProbability "0.5 / 2"
param Network3.node[6].lossProbability "0.5 * 2"
param Network3.node[7].lossProbability "0.5 * 2"
param Network3.node[5].lossProbability "0.5 * 3"

vector 0 Network3.node[0] txVector ETV
vector 1 Network3.node[2] txVector ETV
vector 2 Network3.node[4] txVector ETV
vector 3 Network3.node[1] txVector ETV
vector 4 Network3.node[3] txVector ETV
0	1	0.092839031499	0
0	1	0.092839031499	1
0	11	1.277921112972	2
0	11	1.277921112972	3
0	21	2.432347788495	4
0	21	2.432347788495	5
0	35	4.250574510564	6
0	35	4.250574510564	7
0	46	5.657882343066	8
0	46	5.657882343066	9
0	49	6.75441326459	10
0	49	6.75441326459	11
0	60	8.248703032518	12
0	60	8.248703032518	13
0	63	9.716490517622	14
0	63	9.716490517622	15
0	78	11.185164100044	16
0	78	11.185164100044	17
0	96	12.885916443561	18
0	96	12.885916443561	19
0	110	14.421520620138	20
0	110	14.421520620138	21
0	128	15.448722986291	22
0	128	15.448722986291	23
0	146	16.741746218662	24
0	146	16.741746218662	25
0	152	18.128636102678	26
0	152	18.128636102678	27
0	163	19.507846669314	28
0	163	19.507846669314	29
0	181	20.871172560632	30
0	181	20.871172560632	31
0	191	22.83363213625	32
0	191	22.83363213625	33
0	209	24.712834166616	34
0	209	24.712834166616	35
0	227	25.819406700341	36
0	227	25.819406700341	37
0	245	27.737125422128	38
0	245	27.737125422128	39
0	248	29.673373465447	40
0	248	29.673373465447	41
0	259	30.783956611317	42
0	259	30.783956611317	43
0	265	32.298815778477	44
0	265	32.298815778477	45
0	268	33.828636954326	46
0	268	33.828636954326	47
0	278	35.300046812763	48
0	278	35.300046812763	49
0	284	36.532165062867	50
0	284	36.532165062867	51
0	302	38.402310956057	52
0	302	38.402310956057	53
0	317	39.432900433915	54
0	317	39.432900433915	55
0	320	40.882927156074	56
0	320	40.882927156074	57
0	323	42.759193610653	58
0	323	42.759193610653	59
0	338	43.761776185149	60
0	338	43.761776185149	61
0	356	45.206350447863	62
0	356	45.206350447863	63
0	374	46.709129195448	64
0	374	46.709129195448	65
0	377	48.424876282245	66
0	377	48.424876282245	67
0	383	49.589743424693	68
0	383	49.589743424693	69
0	390	50.943915847244	70
0	390	50.943915847244	71
0	408	52.332250025144	72
0	408	52.332250025144	73
0	426	53.750086271458	74
0	426	53.750086271458	75
0	429	55.096716292224	76
0	429	55.096716292224	77
0	443	56.194264362821	78
0	443	56.194264362821	79
0	461	57.95126900242	80
0	461	57.95126900242	81
0	472	59.938573858024	82
0	472	59.938573858024	83
0	478	61.875354932643	84
0	478	61.875354932643	85
0	481	63.730474600125	86
0	481	63.730474600125	87
0	491	65.15611384462	88
0	491	65.15611384462	89
0	506	66.807206034683	90
0	506	66.807206034683	91
0	524	67.932987421541	92
0	524	67.932987421541	93
0	527	69.648718011123	94
0	527	69.648718011123	95
0	530	71.012012657034	96
0	530	71.012012657034	97
0	536	72.725334219658	98
0	536	72.725334219658	99
0	554	74.378241168824	100
0	554	74.378241168824	101
0	572	76.367103263992	102
0	572	76.367103263992	103
0	578	77.440601648786	104
0	578	77.440601648786	105
0	584	78.605380271585	106
0	584	78.605380271585	107
0	595	80.132018696075	108
0	595	80.132018696075	109
0	598	81.275013925764	110
0	598	81.275013925764	111
0	616	83.1679198039	112
0	616	83.1679198039	113
0	627	84.419202719839	114
0	627	84.419202719839	115
0	642	86.325125315018	116
0	642	86.325125315018	117
0	660	87.572676191131	118
0	660	87.572676191131	119
0	663	88.77532524455	120
0	663	88.77532524455	121
0	669	90.586098448398	122
0	669	90.586098448398	123
0	684	91.762395458786	124
0	684	91.762395458786	125
0	702	93.04266374258	126
0	702	93.04266374258	127
0	713	94.367720545993	128
0	713	94.367720545993	129
0	719	95.981351979102	130
0	719	95.981351979102	131
0	729	97.267215390948	132
0	729	97.267215390948	133
0	744	98.42749231288	134
0	744	98.42749231288	135
0	755	100.33133847595	136
0	755	100.33133847595	137
0	773	102.238397908423	138
0	773	102.238397908423	139
0	776	103.472959163858	140
0	776	103.472959163858	141
0	794	104.739585056927	142
0	794	104.739585056927	143
0	812	105.758343203252	144
0	812	105.758343203252	145
0	822	107.544571719391	146
0	822	107.544571719391	147
0	840	108.698637840364	148
0	840	108.698637840364	149
0	850	110.300401564015	150
0	850	110.300401564015	151
0	868	111.32814586398	152
0	868	111.32814586398	153
0	882	112.971474324845	154
0	882	112.971474324845	155
0	885	114.715835216016	156
0	885	114.715835216016	157
0	903	116.238593273357	158
0	903	116.238593273357	159
0	906	118.048526941825	160
0	906	118.048526941825	161
0	920	120.022394562865	162
0	920	120.022394562865	163
0	935	121.475212191724	164
0	935	121.475212191724	165
0	953	122.512299989144	166
0	953	122.512299989144	167
0	963	123.891013136859	168
0	963	123.891013136859	169
0	981	125.184175772387	170
0	981	125.184175772387	171
0	984	127.147040800917	172
0	984	127.147040800917	173
0	987	129.060536294038	174
0	987	129.060536294038	175
0	998	130.691375411375	176
0	998	130.691375411375	177
0	1001	132.244155371355	178
0	1001	132.244155371355	179
0	1004	133.951635462025	180
0	1004	133.951635462025	181
0	1022	135.247840416178	182
0	1022	135.247840416178	183
0	1025	137.091932505162	184
0	1025	137.091932505162	185
0	1043	138.63290060221	186
0	1043	138.63290060221	187
0	1046	139.897440213037	188
0	1046	139.897440213037	189
0	1052	141.590613471602	190
0	1052	141.590613471602	191
0	1070	143.403131167429	192
0	1070	143.403131167429	193
0	1073	144.877436287726	194
0	1073	144.877436287726	195
0	1076	146.098329255382	196
0	1076	146.098329255382	197
0	1086	147.341288347288	198
0	1086	147.341288347288	199
0	1104	149.041486093101	200
0	1104	149.041486093101	201
0	1122	150.14297424725	202
0	1122	150.14297424725	203
0	1136	152.018395586663	204
0	1136	152.018395586663	205
0	1154	153.352042159789	206
0	1154	153.352042159789	207
0	1172	155.051628842043	208
0	1172	155.051628842043	209
0	1187	156.972953589192	210
0	1187	156.972953589192	211
0	1197	158.68412025415	212
0	1197	158.68412025415	213
0	1203	160.608342784481	214
0	1203	160.608342784481	215
0	1221	161.811234043935	216
0	1221	161.811234043935	217
0	1239	163.620078651957	218
0	1239	163.620078651957	219
0	1257	164.978493945697	220
0	1257	164.978493945697	221
0	1260	166.016847224231	222
0	1260	166.016847224231	223
0	1263	167.798521582759	224
0	1263	167.798521582759	225
0	1266	168.908453781414	226
0	1266	168.908453781414	227
0	1269	170.378226397582	228
0	1269	170.378226397582	229
0	1287	171.574577020504	230
0	1287	171.574577020504	231
0	1293	173.26631704953	232
0	1293	173.26631704953	233
0	1307	174.526514716935	234
0	1307	174.526514716935	235
0	1313	175.753438294422	236
0	1313	175.753438294422	237
0	1316	176.80136798371	238
0	1316	176.80136798371	239
0	1319	178.092484106332	240
0	1319	178.092484106332	241
0	1337	179.212099447869	242
0	1337	179.212099447869	243
0	1355	180.599104251735	244
0	1355	180.599104251735	245
0	1369	182.083294350211	246
0	1369	182.083294350211	247
0	1379	183.941747727128	248
0	1379	183.941747727128	249
0	1393	185.090870833978	250
0	1393	185.090870833978	251
0	1400	186.459862876007	252
0	1400	186.459862876007	253
0	1403	187.471914073242	254
0	1403	187.471914073242	255
0	1409	189.361344670667	256
0	1409	189.361344670667	257
0	1412	190.949195907241	258
0	1412	190.949195907241	259
0	1430	192.852341358805	260
0	1430	192.852341358805	261
0	1436	194.113357793096	262
0	1436	194.113357793096	263
0	1442	195.273570192534	264
0	1442	195.273570192534	265
0	1453	196.872970266988	266
0	1453	196.872970266988	267
0	1459	198.785294431749	268
0	1459	198.785294431749	269
0	1477	200.710860128769	270
0	1477	200.710860128769	271
0	1480	202.140567554881	272
0	1480	202.140567554881	273
0	1498	203.359239312609	274
0	1498	203.359239312609	275
0	1512	204.829248902177	276
0	1512	204.829248902177	277
0	1523	206.77070538632	278
0	1523	206.77070538632	279
0	1526	207.930653433571	280
0	1526	207.930653433571	281
0	1533	209.006153143732	282
0	1533	209.006153143732	283
0	1548	210.026302079227	284
0	1548	210.026302079227	285
0	1566	212.006388259608	286
0	1566	212.006388259608	287
0	1584	213.656820590863	288
0	1584	213.656820590863	289
0	1594	215.039348390907	290
0	1594	215.039348390907	291
0	1597	216.263458816357	292
0	1597	216.263458816357	293
0	1615	217.438427806621	294
0	1615	217.438427806621	295
0	1618	219.149327124258	296
0	1618	219.149327124258	297
0	1621	220.246718028116	298
0	1621	220.246718028116	299
0	1624	221.968236828011	300
0	1624	221.968236828011	301
0	1630	223.665466225727	302
0	1630	223.665466225727	303
0	1648	224.719760711791	304
0	1648	224.719760711791	305
0	1666	226.438752339941	306
0	1666	226.438752339941	307
0	1684	228.214273568264	308
0	1684	228.214273568264	309
0	1687	229.7721345823	310
0	1687	229.7721345823	311
0	1698	231.561808616409	312
0	1698	231.561808616409	313
0	1704	232.648075052092	314
0	1704	232.648075052092	315
0	1719	234.502429737032	316
0	1719	234.502429737032	317
0	1722	235.648656590863	318
0	1722	235.648656590863	319
0	1737	237.209788285217	320
0	1737	237.209788285217	321
0	1740	238.396409044762	322
0	1740	238.396409044762	323
0	1743	239.533479741796	324
0	1743	239.533479741796	325
1	4	0.110816610738	0
1	4	0.110816610738	1
1	14	1.297577786623	2
1	14	1.297577786623	3
1	32	2.485666081216	4
1	32	2.485666081216	5
1	81	11.202095739131	6
1	81	11.202095739131	7
1	99	12.911921244543	8
1	99	12.911921244543	9
1	125	14.519756166055	10
1	125	14.519756166055	11
1	131	15.462621968578	12
1	131	15.462621968578	13
1	149	16.777857279753	14
1	149	16.777857279753	15
1	178	19.573616178557	16
1	178	19.573616178557	17
1	184	20.894581937851	18
1	184	20.894581937851	19
1	195	22.859057981003	20
1	195	22.859057981003	21
1	224	24.790364517703	22
1	224	24.790364517703	23
1	235	25.842605120351	24
1	235	25.842605120351	25
1	262	30.797293952489	26
1	262	30.797293952489	27
1	271	33.859016773937	28
1	271	33.859016773937	29
1	281	35.311810550755	30
1	281	35.311810550755	31
1	291	36.555703529906	32
1	291	36.555703529906	33
1	342	43.779236038716	34
1	342	43.779236038716	35
1	368	45.275992045057	36
1	368	45.275992045057	37
1	380	48.463085755336	38
1	380	48.463085755336	39
1	393	50.962361926922	40
1	393	50.962361926922	41
1	411	52.349997559493	42
1	411	52.349997559493	43
1	436	55.126451097054	44
1	436	55.126451097054	45
1	447	56.218390757837	46
1	447	56.218390757837	47
1	475	59.948707112266	48
1	475	59.948707112266	49
1	484	63.755691591963	50
1	484	63.755691591963	51
1	509	66.822093145327	52
1	509	66.822093145327	53
1	533	71.022634683978	54
1	533	71.022634683978	55
1	539	72.736253043404	56
1	539	72.736253043404	57
1	557	74.392796443053	58
1	557	74.392796443053	59
1	575	76.377333049803	60
1	575	76.377333049803	61
1	581	77.453990738376	62
1	581	77.453990738376	63
1	613	81.311701516933	64
1	613	81.311701516933	65
1	645	86.342310186412	66
1	645	86.342310186412	67
1	666	88.792191479562	68
1	666	88.792191479562	69
1	691	91.784083184611	70
1	691	91.784083184611	71
1	716	94.40551275098	72
1	716	94.40551275098	73
1	722	95.998385205311	74
1	722	95.998385205311	75
1	758	100.346393641421	76
1	758	100.346393641421	77
1	779	103.486534656917	78
1	779	103.486534656917	79
1	809	104.77916247582	80
1	809	104.77916247582	81
1	815	105.769795816734	82
1	815	105.769795816734	83
1	825	107.559430934326	84
1	825	107.559430934326	85
1	843	108.710889835028	86
1	843	108.710889835028	87
1	854	110.330163253275	88
1	854	110.330163253275	89
1	871	111.339930227551	90
1	871	111.339930227551	91
1	893	114.745362764773	92
1	893	114.745362764773	93
1	917	118.096842176872	94
1	917	118.096842176872	95
1	938	121.48902894546	96
1	938	121.48902894546	97
1	956	122.562517650026	98
1	956	122.562517650026	99
1	978	123.952754578246	100
1	978	123.952754578246	101
1	1008	133.987407680478	102
1	1008	133.987407680478	103
1	1040	137.143060517099	104
1	1040	137.143060517099	105
1	1049	139.916373888276	106
1	1049	139.916373888276	107
1	1056	141.603365267099	108
1	1056	141.603365267099	109
1	1079	146.132181895694	110
1	1079	146.132181895694	111
1	1089	147.365287689951	112
1	1089	147.365287689951	113
1	1116	149.077537401749	114
1	1116	149.077537401749	115
1	1133	150.180851866453	116
1	1133	150.180851866453	117
1	1139	152.048928767212	118
1	1139	152.048928767212	119
1	1157	153.3656635051	120
1	1157	153.3656635051	121
1	1190	156.991625041326	122
1	1190	156.991625041326	123
1	1200	158.697887109665	124
1	1200	158.697887109665	125
1	1218	160.694778442019	126
1	1218	160.694778442019	127
1	1224	161.830978377283	128
1	1224	161.830978377283	129
1	1242	163.639861409945	130
1	1242	163.639861409945	131
1	1272	170.394835492749	132
1	1272	170.394835492749	133
1	1290	171.590552370425	134
1	1290	171.590552370425	135
1	1296	173.276484125207	136
1	1296	173.276484125207	137
1	1310	174.55236208125	138
1	1310	174.55236208125	139
1	1330	178.173831741318	140
1	1330	178.173831741318	141
1	1340	179.245762514012	142
1	1340	179.245762514012	143
1	1366	180.647793223204	144
1	1366	180.647793223204	145
1	1372	182.096085548349	146
1	1372	182.096085548349	147
1	1383	183.963562843763	148
1	1383	183.963562843763	149
1	1406	187.483685140182	150
1	1406	187.483685140182	151
1	1416	190.961784627424	152
1	1416	190.961784627424	153
1	1433	192.865122213145	154
1	1433	192.865122213145	155
1	1439	194.132138479029	156
1	1439	194.132138479029	157
1	1456	196.907476941047	158
1	1456	196.907476941047	159
1	1474	198.855644304729	160
1	1474	198.855644304729	161
1	1483	202.156373104158	162
1	1483	202.156373104158	163
1	1501	203.37316573768	164
1	1501	203.37316573768	165
1	1560	210.090827378686	166
1	1560	210.090827378686	167
1	1570	212.025561410867	168
1	1570	212.025561410867	169
1	1587	213.675721752635	170
1	1587	213.675721752635	171
1	1600	216.276201603896	172
1	1600	216.276201603896	173
1	1627	221.983355655513	174
1	1627	221.983355655513	175
1	1645	223.70445333198	176
1	1645	223.70445333198	177
1	1651	224.731259510356	178
1	1651	224.731259510356	179
1	1673	226.461974348203	180
1	1673	226.461974348203	181
1	1701	231.579652009505	182
1	1701	231.579652009505	183
1	1746	239.546781093852	184
1	1746	239.546781093852	185
2	7	0.127447623789	0
2	7	0.127447623789	1
2	7	0.127447623789	2
2	17	1.314217086812	3
2	17	1.314217086812	4
2	17	1.314217086812	5
2	28	2.472675305916	6
2	28	2.472675305916	7
2	28	2.472675305916	8
2	42	4.276046559557	9
2	42	4.276046559557	10
2	42	4.276046559557	11
2	71	9.757989936095	12
2	71	9.757989936095	13
2	71	9.757989936095	14
2	92	11.262102032219	15
2	92	11.262102032219	16
2	92	11.262102032219	17
2	102	12.922777857476	18
2	102	12.922777857476	19
2	102	12.922777857476	20
2	121	14.495276176222	21
2	121	14.495276176222	22
2	121	14.495276176222	23
2	134	15.473089520073	24
2	134	15.473089520073	25
2	134	15.473089520073	26
2	171	19.559432018374	27
2	171	19.559432018374	28
2	171	19.559432018374	29
2	187	20.920850430454	30
2	187	20.920850430454	31
2	187	20.920850430454	32
2	202	22.883950468239	33
2	202	22.883950468239	34
2	202	22.883950468239	35
2	217	24.753894039918	36
2	217	24.753894039918	37
2	217	24.753894039918	38
2	234	25.841759531271	39
2	234	25.841759531271	40
2	234	25.841759531271	41
2	274	33.91367930013	42
2	274	33.91367930013	43
2	274	33.91367930013	44
2	293	36.564378756728	45
2	293	36.564378756728	46
2	293	36.564378756728	47
2	309	38.427265517799	48
2	309	38.427265517799	49
2	309	38.427265517799	50
2	334	42.833144202635	51
2	334	42.833144202635	52
2	334	42.833144202635	53
2	348	43.790652731536	54
2	348	43.790652731536	55
2	348	43.790652731536	56
2	363	45.264324818414	57
2	363	45.264324818414	58
2	363	45.264324818414	59
2	396	50.978184939561	60
2	396	50.978184939561	61
2	396	50.978184939561	62
2	414	52.371316711949	63
2	414	52.371316711949	64
2	414	52.371316711949	65
2	437	55.127701686427	66
2	437	55.127701686427	67
2	437	55.127701686427	68
2	451	56.220660919867	69
2	451	56.220660919867	70
2	451	56.220660919867	71
2	487	63.779358009825	72
2	487	63.779358009825	73
2	487	63.779358009825	74
2	499	65.200234500173	75
2	499	65.200234500173	76
2	499	65.200234500173	77
2	512	66.834025646163	78
2	512	66.834025646163	79
2	512	66.834025646163	80
2	546	72.759274889754	81
2	546	72.759274889754	82
2	546	72.759274889754	83
2	560	74.414643131195	84
2	560	74.414643131195	85
2	560	74.414643131195	86
2	605	81.296317609718	87
2	605	81.296317609718	88
2	605	81.296317609718	89
2	638	84.475063549027	90
2	638	84.475063549027	91
2	638	84.475063549027	92
2	648	86.35673435479	93
2	648	86.35673435479	94
2	648	86.35673435479	95
2	680	90.640754079039	96
2	680	90.640754079039	97
2	680	90.640754079039	98
2	695	91.798528092978	99
2	695	91.798528092978	100
2	695	91.798528092978	101
2	725	96.019612906094	102
2	725	96.019612906094	103
2	725	96.019612906094	104
2	736	97.302446534059	105
2	736	97.302446534059	106
2	736	97.302446534059	107
2	751	98.46693617544	108
2	751	98.46693617544	109
2	751	98.46693617544	110
2	762	100.358881972219	111
2	762	100.358881972219	112
2	762	100.358881972219	113
2	786	103.511140560224	114
2	786	103.511140560224	115
2	786	103.511140560224	116
2	801	104.763034644237	117
2	801	104.763034644237	118
2	801	104.763034644237	119
2	818	105.796212081822	120
2	818	105.796212081822	121
2	818	105.796212081822	122
2	829	107.570359209385	123
2	829	107.570359209385	124
2	829	107.570359209385	125
2	846	108.752713843617	126
2	846	108.752713843617	127
2	846	108.752713843617	128
2	860	110.346354932016	129
2	860	110.346354932016	130
2	860	110.346354932016	131
2	874	111.358071376805	132
2	874	111.358071376805	133
2	874	111.358071376805	134
2	899	114.756664283515	135
2	899	114.756664283515	136
2	899	114.756664283515	137
2	913	118.0822021983	138
2	913	118.0822021983	139
2	913	118.0822021983	140
2	931	120.082855067059	141
2	931	120.082855067059	142
2	931	120.082855067059	143
2	941	121.500089069239	144
2	941	121.500089069239	145
2	941	121.500089069239	146
2	959	122.572648205516	147
2	959	122.572648205516	148
2	959	122.572648205516	149
2	971	123.925056799626	150
2	971	123.925056799626	151
2	971	123.925056799626	152
2	1018	134.005487218453	153
2	1018	134.005487218453	154
2	1018	134.005487218453	155
2	1032	137.129408877696	156
2	1032	137.129408877696	157
2	1032	137.129408877696	158
2	1062	141.616597493409	159
2	1062	141.616597493409	160
2	1062	141.616597493409	161
2	1082	146.142217694085	162
2	1082	146.142217694085	163
2	1082	146.142217694085	164
2	1093	147.375521485378	165
2	1093	147.375521485378	166
2	1093	147.375521485378	167
2	1111	149.064249711028	168
2	1111	149.064249711028	169
2	1111	149.064249711028	170
2	1129	150.168219048168	171
2	1129	150.168219048168	172
2	1129	150.168219048168	173
2	1142	152.070259048162	174
2	1142	152.070259048162	175
2	1142	152.070259048162	176
2	1160	153.375719384076	177
2	1160	153.375719384076	178
2	1160	153.375719384076	179
2	1180	155.086587121501	180
2	1180	155.086587121501	181
2	1180	155.086587121501	182
2	1193	157.012595708083	183
2	1193	157.012595708083	184
2	1193	157.012595708083	185
2	1211	160.665851324875	186
2	1211	160.665851324875	187
2	1211	160.665851324875	188
2	1228	161.842139310518	189
2	1228	161.842139310518	190
2	1228	161.842139310518	191
2	1245	163.651061091841	192
2	1245	163.651061091841	193
2	1245	163.651061091841	194
2	1279	170.41434158894	195
2	1279	170.41434158894	196
2	1279	170.41434158894	197
2	1326	178.157298943045	198
2	1326	178.157298943045	199
2	1326	178.157298943045	200
2	1343	179.271193130657	201
2	1343	179.271193130657	202
2	1343	179.271193130657	203
2	1362	180.635201705125	204
2	1362	180.635201705125	205
2	1362	180.635201705125	206
2	1375	182.113041397199	207
2	1375	182.113041397199	208
2	1375	182.113041397199	209
2	1389	183.973965499869	210
2	1389	183.973965499869	211
2	1389	183.973965499869	212
2	1423	190.980130930309	213
2	1423	190.980130930309	214
2	1423	190.980130930309	215
2	1449	195.314414392686	216
2	1449	195.314414392686	217
2	1449	195.314414392686	218
2	1466	198.825608791061	219
2	1466	198.825608791061	220
2	1466	198.825608791061	221
2	1486	202.168555620468	222
2	1486	202.168555620468	223
2	1486	202.168555620468	224
2	1504	203.388971868427	225
2	1504	203.388971868427	226
2	1504	203.388971868427	227
2	1540	209.037579597756	228
2	1540	209.037579597756	229
2	1540	209.037579597756	230
2	1555	210.078121585831	231
2	1555	210.078121585831	232
2	1555	210.078121585831	233
2	1577	212.039937633989	234
2	1577	212.039937633989	235
2	1577	212.039937633989	236
2	1590	213.686654163957	237
2	1590	213.686654163957	238
2	1590	213.686654163957	239
2	1604	216.289474153478	240
2	1604	216.289474153478	241
2	1604	216.289474153478	242
2	1638	223.69262760516	243
2	1638	223.69262760516	244
2	1638	223.69262760516	245
2	1654	224.757707192433	246
2	1654	224.757707192433	247
2	1654	224.757707192433	248
2	1676	226.475120344476	249
2	1676	226.475120344476	250
2	1676	226.475120344476	251
2	1694	229.79815944417	252
2	1694	229.79815944417	253
2	1694	229.79815944417	254
2	1711	232.674855276789	255
2	1711	232.674855276789	256
2	1711	232.674855276789	257
2	1730	235.692817852418	258
2	1730	235.692817852418	259
2	1730	235.692817852418	260
2	1749	239.568997403315	261
2	1749	239.568997403315	262
2	1749	239.568997403315	263
3	24	2.453837143612	0
3	24	2.453837143612	1
3	24	2.453837143612	2
3	38	4.262522314517	3
3	38	4.262522314517	4
3	38	4.262522314517	5
3	52	6.772754961759	6
3	52	6.772754961759	7
3	52	6.772754961759	8
3	66	9.737111378746	9
3	66	9.737111378746	10
3	66	9.737111378746	11
3	84	11.228560725625	12
3	84	11.228560725625	13
3	84	11.228560725625	14
3	106	12.937340322745	15
3	106	12.937340322745	16
3	106	12.937340322745	17
3	113	14.434359874671	18
3	113	14.434359874671	19
3	113	14.434359874671	20
3	138	15.523925609187	21
3	138	15.523925609187	22
3	138	15.523925609187	23
3	155	18.138767130739	24
3	155	18.138767130739	25
3	155	18.138767130739	26
3	166	19.524842486031	27
3	166	19.524842486031	28
3	166	19.524842486031	29
3	194	22.852609190467	30
3	194	22.852609190467	31
3	194	22.852609190467	32
3	212	24.727432443087	33
3	212	24.727432443087	34
3	212	24.727432443087	35
3	230	25.829815037319	36
3	230	25.829815037319	37
3	230	25.829815037319	38
3	251	29.686576334334	39
3	251	29.686576334334	40
3	251	29.686576334334	41
3	287	36.544616429514	42
3	287	36.544616429514	43
3	287	36.544616429514	44
3	305	38.416729160343	45
3	305	38.416729160343	46
3	305	38.416729160343	47
3	326	42.774880734539	48
3	326	42.774880734539	49
3	326	42.774880734539	50
3	341	43.778861179052	51
3	341	43.778861179052	52
3	341	43.778861179052	53
3	359	45.247757472854	54
3	359	45.247757472854	55
3	359	45.247757472854	56
3	386	49.61819488057	57
3	386	49.61819488057	58
3	386	49.61819488057	59
3	397	50.979939460251	60
3	397	50.979939460251	61
3	397	50.979939460251	62
3	418	52.399789415385	63
3	418	52.399789415385	64
3	418	52.399789415385	65
3	432	55.109281953359	66
3	432	55.109281953359	67
3	432	55.109281953359	68
3	446	56.20952713412	69
3	446	56.20952713412	70
3	446	56.20952713412	71
3	464	57.961681596102	72
3	464	57.961681596102	73
3	464	57.961681596102	74
3	494	65.1763614209	75
3	494	65.1763614209	76
3	494	65.1763614209	77
3	516	66.844851184967	78
3	516	66.844851184967	79
3	516	66.844851184967	80
3	540	72.741830047103	81
3	540	72.741830047103	82
3	540	72.741830047103	83
3	564	74.43787331493	84
3	564	74.43787331493	85
3	564	74.43787331493	86
3	587	78.621606213	87
3	587	78.621606213	88
3	587	78.621606213	89
3	601	81.28530975179	90
3	601	81.28530975179	91
3	601	81.28530975179	92
3	619	83.199225914529	93
3	619	83.199225914529	94
3	619	83.199225914529	95
3	630	84.432948023125	96
3	630	84.432948023125	97
3	630	84.432948023125	98
3	652	86.366829307901	99
3	652	86.366829307901	100
3	652	86.366829307901	101
3	672	90.605365416209	102
3	672	90.605365416209	103
3	672	90.605365416209	104
3	687	91.773640949121	105
3	687	91.773640949121	106
3	687	91.773640949121	107
3	705	93.079226448309	108
3	705	93.079226448309	109
3	705	93.079226448309	110
3	732	97.277533414779	111
3	732	97.277533414779	112
3	732	97.277533414779	113
3	747	98.454769600025	114
3	747	98.454769600025	115
3	747	98.454769600025	116
3	759	100.350010469587	117
3	759	100.350010469587	118
3	759	100.350010469587	119
3	782	103.499213610728	120
3	782	103.499213610728	121
3	782	103.499213610728	122
3	797	104.750546162532	123
3	797	104.750546162532	124
3	797	104.750546162532	125
3	826	107.568362326387	126
3	826	107.568362326387	127
3	826	107.568362326387	128
3	853	110.323828965709	129
3	853	110.323828965709	130
3	853	110.323828965709	131
3	878	111.375657163549	132
3	878	111.375657163549	133
3	878	111.375657163549	134
3	888	114.727047502423	135
3	888	114.727047502423	136
3	888	114.727047502423	137
3	909	118.070506827804	138
3	909	118.070506827804	139
3	909	118.070506827804	140
3	923	120.051711676281	141
3	923	120.051711676281	142
3	923	120.051711676281	143
3	945	121.513734820705	144
3	945	121.513734820705	145
3	945	121.513734820705	146
3	966	123.913623805812	147
3	966	123.913623805812	148
3	966	123.913623805812	149
3	990	129.076352413547	150
3	990	129.076352413547	151
3	990	129.076352413547	152
3	1007	133.980078690211	153
3	1007	133.980078690211	154
3	1007	133.980078690211	155
3	1028	137.106868306222	156
3	1028	137.106868306222	157
3	1028	137.106868306222	158
3	1055	141.602123842401	159
3	1055	141.602123842401	160
3	1055	141.602123842401	161
3	1090	147.368176964155	162
3	1090	147.368176964155	163
3	1090	147.368176964155	164
3	1107	149.052399087244	165
3	1107	149.052399087244	166
3	1107	149.052399087244	167
3	1125	150.156592354045	168
3	1125	150.156592354045	169
3	1125	150.156592354045	170
3	1146	152.083838046105	171
3	1146	152.083838046105	172
3	1146	152.083838046105	173
3	1164	153.399406021363	174
3	1164	153.399406021363	175
3	1164	153.399406021363	176
3	1175	155.070381877154	177
3	1175	155.070381877154	178
3	1175	155.070381877154	179
3	1206	160.651941277034	180
3	1206	160.651941277034	181
3	1206	160.651941277034	182
3	1225	161.838906688233	183
3	1225	161.838906688233	184
3	1225	161.838906688233	185
3	1246	163.651941241403	186
3	1246	163.651941241403	187
3	1246	163.651941241403	188
3	1273	170.40084571918	189
3	1273	170.40084571918	190
3	1273	170.40084571918	191
3	1299	173.292889860223	192
3	1299	173.292889860223	193
3	1299	173.292889860223	194
3	1322	178.13694998149	195
3	1322	178.13694998149	196
3	1322	178.13694998149	197
3	1347	179.281512649425	198
3	1347	179.281512649425	199
3	1347	179.281512649425	200
3	1358	180.619681234224	201
3	1358	180.619681234224	202
3	1358	180.619681234224	203
3	1382	183.959403952101	204
3	1382	183.959403952101	205
3	1382	183.959403952101	206
3	1396	185.11968372616	207
3	1396	185.11968372616	208
3	1396	185.11968372616	209
3	1415	190.959311582584	210
3	1415	190.959311582584	211
3	1415	190.959311582584	212
3	1445	195.290146620402	213
3	1445	195.290146620402	214
3	1445	195.290146620402	215
3	1462	198.807086321727	216
3	1462	198.807086321727	217
3	1462	198.807086321727	218
3	1487	202.175788704868	219
3	1487	202.175788704868	220
3	1487	202.175788704868	221
3	1508	203.429579551023	222
3	1508	203.429579551023	223
3	1508	203.429579551023	224
3	1515	204.846209933419	225
3	1515	204.846209933419	226
3	1515	204.846209933419	227
3	1529	207.969171362182	228
3	1529	207.969171362182	229
3	1529	207.969171362182	230
3	1536	209.024154613791	231
3	1536	209.024154613791	232
3	1536	209.024154613791	233
3	1551	210.048200377209	234
3	1551	210.048200377209	235
3	1551	210.048200377209	236
3	1569	212.021180191596	237
3	1569	212.021180191596	238
3	1569	212.021180191596	239
3	1601	216.279879084926	240
3	1601	216.279879084926	241
3	1601	216.279879084926	242
3	1633	223.67732875686	243
3	1633	223.67732875686	244
3	1633	223.67732875686	245
3	1658	224.784900705073	246
3	1658	224.784900705073	247
3	1658	224.784900705073	248
3	1669	226.45170100888	249
3	1669	226.45170100888	250
3	1669	226.45170100888	251
3	1690	229.782644407377	252
3	1690	229.782644407377	253
3	1690	229.782644407377	254
3	1707	232.664833161964	255
3	1707	232.664833161964	256
3	1707	232.664833161964	257
3	1725	235.664630215536	258
3	1725	235.664630215536	259
3	1725	235.664630215536	260
4	56	6.785243501844	0
4	56	6.785243501844	1
4	56	6.785243501844	2
4	70	9.756605451915	3
4	70	9.756605451915	4
4	70	9.756605451915	5
4	88	11.241554671879	6
4	88	11.241554671879	7
4	88	11.241554671879	8
4	117	14.479620787295	9
4	117	14.479620787295	10
4	117	14.479620787295	11
4	142	15.537834448264	12
4	142	15.537834448264	13
4	142	15.537834448264	14
4	159	18.153261730277	15
4	159	18.153261730277	16
4	159	18.153261730277	17
4	170	19.55235065798	18
4	170	19.55235065798	19
4	170	19.55235065798	20
4	201	22.877660336916	21
4	201	22.877660336916	22
4	201	22.877660336916	23
4	216	24.753438245097	24
4	216	24.753438245097	25
4	216	24.753438245097	26
4	236	25.848761732849	27
4	236	25.848761732849	28
4	236	25.848761732849	29
4	255	29.697551318983	30
4	255	29.697551318983	31
4	255	29.697551318983	32
4	292	36.557988924424	33
4	292	36.557988924424	34
4	292	36.557988924424	35
4	310	38.427408348437	36
4	310	38.427408348437	37
4	310	38.427408348437	38
4	330	42.790599252443	39
4	330	42.790599252443	40
4	330	42.790599252443	41
4	349	43.790657460022	42
4	349	43.790657460022	43
4	349	43.790657460022	44
4	364	45.271555587005	45
4	364	45.271555587005	46
4	364	45.271555587005	47
4	404	50.992408967092	48
4	404	50.992408967092	49
4	404	50.992408967092	50
4	422	52.426718651652	51
4	422	52.426718651652	52
4	422	52.426718651652	53
4	452	56.225237910228	54
4	452	56.225237910228	55
4	452	56.225237910228	56
4	468	57.981525791995	57
4	468	57.981525791995	58
4	468	57.981525791995	59
4	498	65.192414218211	60
4	498	65.192414218211	61
4	498	65.192414218211	62
4	520	66.865118151295	63
4	520	66.865118151295	64
4	520	66.865118151295	65
4	550	72.76984607591	66
4	550	72.76984607591	67
4	550	72.76984607591	68
4	568	74.466996526071	69
4	568	74.466996526071	70
4	568	74.466996526071	71
4	591	78.643345824891	72
4	591	78.643345824891	73
4	591	78.643345824891	74
4	606	81.297503313157	75
4	606	81.297503313157	76
4	606	81.297503313157	77
4	623	83.228225810902	78
4	623	83.228225810902	79
4	623	83.228225810902	80
4	634	84.463191382006	81
4	634	84.463191382006	82
4	634	84.463191382006	83
4	656	86.378700866479	84
4	656	86.378700866479	85
4	656	86.378700866479	86
4	676	90.619559626599	87
4	676	90.619559626599	88
4	676	90.619559626599	89
4	694	91.796438371154	90
4	694	91.796438371154	91
4	694	91.796438371154	92
4	709	93.089759339599	93
4	709	93.089759339599	94
4	709	93.089759339599	95
4	740	97.314725004922	96
4	740	97.314725004922	97
4	740	97.314725004922	98
4	769	100.393355254476	99
4	769	100.393355254476	100
4	769	100.393355254476	101
4	787	103.520231430253	102
4	787	103.520231430253	103
4	787	103.520231430253	104
4	802	104.768821120781	105
4	802	104.768821120781	106
4	802	104.768821120781	107
4	836	107.583507223245	108
4	836	107.583507223245	109
4	836	107.583507223245	110
4	864	110.366917800962	111
4	864	110.366917800962	112
4	864	110.366917800962	113
4	892	114.742158167951	114
4	892	114.742158167951	115
4	892	114.742158167951	116
4	927	120.061745086459	117
4	927	120.061745086459	118
4	927	120.061745086459	119
4	949	121.526525173304	120
4	949	121.526525173304	121
4	949	121.526525173304	122
4	970	123.923913034162	123
4	970	123.923913034162	124
4	970	123.923913034162	125
4	994	129.097248183516	126
4	994	129.097248183516	127
4	994	129.097248183516	128
4	1012	133.995113582759	129
4	1012	133.995113582759	130
4	1012	133.995113582759	131
4	1033	137.129539709446	132
4	1033	137.129539709446	133
4	1033	137.129539709446	134
4	1063	141.619181199973	135
4	1063	141.619181199973	136
4	1063	141.619181199973	137
4	1097	147.382014681044	138
4	1097	147.382014681044	139
4	1097	147.382014681044	140
4	1112	149.068802137877	141
4	1112	149.068802137877	142
4	1112	149.068802137877	143
4	1150	152.096559728573	144
4	1150	152.096559728573	145
4	1150	152.096559728573	146
4	1168	153.454713732568	147
4	1168	153.454713732568	148
4	1168	153.454713732568	149
4	1179	155.084533080026	150
4	1179	155.084533080026	151
4	1179	155.084533080026	152
4	1210	160.665722606092	153
4	1210	160.665722606092	154
4	1210	160.665722606092	155
4	1235	161.862629482839	156
4	1235	161.862629482839	157
4	1235	161.862629482839	158
4	1253	163.666955797746	159
4	1253	163.666955797746	160
4	1253	163.666955797746	161
4	1280	170.41464211603	162
4	1280	170.41464211603	163
4	1280	170.41464211603	164
4	1303	173.317101401526	165
4	1303	173.317101401526	166
4	1303	173.317101401526	167
4	1331	178.182446375867	168
4	1331	178.182446375867	169
4	1331	178.182446375867	170
4	1351	179.314422189831	171
4	1351	179.314422189831	172
4	1351	179.314422189831	173
4	1422	190.97630870837	174
4	1422	190.97630870837	175
4	1422	190.97630870837	176
4	1467	198.831358048934	177
4	1467	198.831358048934	178
4	1467	198.831358048934	179
4	1494	202.231196757308	180
4	1494	202.231196757308	181
4	1494	202.231196757308	182
4	1519	204.861086861452	183
4	1519	204.861086861452	184
4	1519	204.861086861452	185
4	1541	209.040340334929	186
4	1541	209.040340334929	187
4	1541	209.040340334929	188
4	1556	210.084012716237	189
4	1556	210.084012716237	190
4	1556	210.084012716237	191
4	1574	212.032457169174	192
4	1574	212.032457169174	193
4	1574	212.032457169174	194
4	1611	216.300215038747	195
4	1611	216.300215038747	196
4	1611	216.300215038747	197
4	1637	223.688610679275	198
4	1637	223.688610679275	199
4	1637	223.688610679275	200
4	1662	224.799501647481	201
4	1662	224.799501647481	202
4	1662	224.799501647481	203
4	1677	226.477170259511	204
4	1677	226.477170259511	205
4	1677	226.477170259511	206
4	1715	232.685178566829	207
4	1715	232.685178566829	208
4	1715	232.685178566829	209
4	1729	235.687764200932	210
4	1729	235.687764200932	211
4	1729	235.687764200932	212

