version 2
run General-3-20231008-09:20:52-19174
attr configname General
attr datetime 20231008-09:20:52
attr experiment General
attr inifile omnetpp.ini
attr iterationvars ""
attr iterationvarsf ""
attr measurement ""
attr network Network3
attr processid 19174
attr repetition 3
attr replication #3
attr resultdir results
attr runnumber 3
attr seedset 3
param Network3.node[*].transmissionTime "uniform(1s, 2s)"
param Network3.node[*].delayTime "uniform(0.01s, 0.2s)"
param Network3.node[*].processingTime exponential(0.01s)
param Network3.node[0].lossProbability 0
param Network3.node[1].lossProbability 0.5
param Network3.node[2].lossProbability 0.5
param Network3.node[3].lossProbability "0.5 / 2"
param Network3.node[4].lossProbability "0.5 / 2"
param Network3.node[6].lossProbability "0.5 * 2"
param Network3.node[7].lossProbability "0.5 * 2"
param Network3.node[5].lossProbability "0.5 * 3"

vector 0 Network3.node[0] txVector ETV
vector 1 Network3.node[1] txVector ETV
vector 2 Network3.node[3] txVector ETV
vector 3 Network3.node[4] txVector ETV
vector 4 Network3.node[2] txVector ETV
0	1	0.114651601831	0
0	1	0.114651601831	1
0	16	1.185376482154	2
0	16	1.185376482154	3
0	19	2.236843690113	4
0	19	2.236843690113	5
0	22	3.931667347275	6
0	22	3.931667347275	7
0	32	5.388500569923	8
0	32	5.388500569923	9
0	50	6.412482453114	10
0	50	6.412482453114	11
0	68	8.192797215026	12
0	68	8.192797215026	13
0	71	9.570791260408	14
0	71	9.570791260408	15
0	89	10.984509944053	16
0	89	10.984509944053	17
0	107	12.638140796519	18
0	107	12.638140796519	19
0	110	14.330774543642	20
0	110	14.330774543642	21
0	128	15.692950759849	22
0	128	15.692950759849	23
0	143	17.01875792078	24
0	143	17.01875792078	25
0	154	18.044784187407	26
0	154	18.044784187407	27
0	157	19.243760212625	28
0	157	19.243760212625	29
0	167	21.234061401172	30
0	167	21.234061401172	31
0	185	22.899686008759	32
0	185	22.899686008759	33
0	203	24.249611230634	34
0	203	24.249611230634	35
0	221	25.452488878809	36
0	221	25.452488878809	37
0	227	27.339387006193	38
0	227	27.339387006193	39
0	237	28.681806593036	40
0	237	28.681806593036	41
0	240	29.949754347859	42
0	240	29.949754347859	43
0	258	31.159127697416	44
0	258	31.159127697416	45
0	261	32.216859185204	46
0	261	32.216859185204	47
0	279	34.076912648112	48
0	279	34.076912648112	49
0	293	35.773662635891	50
0	293	35.773662635891	51
0	296	37.693523051517	52
0	296	37.693523051517	53
0	299	39.420212806037	54
0	299	39.420212806037	55
0	309	40.958676497752	56
0	309	40.958676497752	57
0	327	42.662416197892	58
0	327	42.662416197892	59
0	330	44.376020741949	60
0	330	44.376020741949	61
0	348	46.209708626216	62
0	348	46.209708626216	63
0	366	47.749155127743	64
0	366	47.749155127743	65
0	373	49.697682775857	66
0	373	49.697682775857	67
0	376	50.719778590204	68
0	376	50.719778590204	69
0	379	52.462515862958	70
0	379	52.462515862958	71
0	394	54.245273393413	72
0	394	54.245273393413	73
0	404	55.307552872293	74
0	404	55.307552872293	75
0	407	56.846345534383	76
0	407	56.846345534383	77
0	425	57.972166574162	78
0	425	57.972166574162	79
0	432	59.589620756286	80
0	432	59.589620756286	81
0	435	60.832598939606	82
0	435	60.832598939606	83
0	438	61.845354430911	84
0	438	61.845354430911	85
0	449	62.875665788607	86
0	449	62.875665788607	87
0	456	64.298290206188	88
0	456	64.298290206188	89
0	474	65.737711733741	90
0	474	65.737711733741	91
0	485	67.01326419513	92
0	485	67.01326419513	93
0	491	68.339528200517	94
0	491	68.339528200517	95
0	509	69.841451543917	96
0	509	69.841451543917	97
0	523	71.835971570642	98
0	523	71.835971570642	99
0	537	73.551350640201	100
0	537	73.551350640201	101
0	547	74.604325660572	102
0	547	74.604325660572	103
0	562	76.278656035729	104
0	562	76.278656035729	105
0	580	78.179366908802	106
0	580	78.179366908802	107
0	594	79.294299141106	108
0	594	79.294299141106	109
0	612	80.785502272493	110
0	612	80.785502272493	111
0	618	82.342869661351	112
0	618	82.342869661351	113
0	636	83.877845240825	114
0	636	83.877845240825	115
0	654	85.394089721677	116
0	654	85.394089721677	117
0	660	86.664481721654	118
0	660	86.664481721654	119
0	670	87.810076752047	120
0	670	87.810076752047	121
0	688	89.550890124005	122
0	688	89.550890124005	123
0	694	90.601670105544	124
0	694	90.601670105544	125
0	712	92.584831893512	126
0	712	92.584831893512	127
0	730	94.049368870978	128
0	730	94.049368870978	129
0	733	95.668696141171	130
0	733	95.668696141171	131
0	743	96.895900579237	132
0	743	96.895900579237	133
0	761	97.93303753326	134
0	761	97.93303753326	135
0	776	99.422301524852	136
0	776	99.422301524852	137
0	787	101.138183499056	138
0	787	101.138183499056	139
0	805	102.513245614779	140
0	805	102.513245614779	141
0	823	103.768950927139	142
0	823	103.768950927139	143
0	826	105.297886999392	144
0	826	105.297886999392	145
0	844	106.920199639465	146
0	844	106.920199639465	147
0	847	108.879433785866	148
0	847	108.879433785866	149
0	850	110.8033005079	150
0	850	110.8033005079	151
0	857	112.544657674686	152
0	857	112.544657674686	153
0	860	114.493894699563	154
0	860	114.493894699563	155
0	874	116.189400989863	156
0	874	116.189400989863	157
0	888	117.694997952388	158
0	888	117.694997952388	159
0	906	119.589847338687	160
0	906	119.589847338687	161
0	912	120.697698434883	162
0	912	120.697698434883	163
0	926	121.767817447496	164
0	926	121.767817447496	165
0	941	123.552067913416	166
0	941	123.552067913416	167
0	959	125.003832897938	168
0	959	125.003832897938	169
0	974	126.524409443441	170
0	974	126.524409443441	171
0	977	127.688884370097	172
0	977	127.688884370097	173
0	987	129.163841215496	174
0	987	129.163841215496	175
0	1005	130.656338651034	176
0	1005	130.656338651034	177
0	1023	132.545843570794	178
0	1023	132.545843570794	179
0	1038	133.984376429648	180
0	1038	133.984376429648	181
0	1041	135.143378939082	182
0	1041	135.143378939082	183
0	1055	136.640446468092	184
0	1055	136.640446468092	185
0	1073	138.392252359142	186
0	1073	138.392252359142	187
0	1087	140.264282950269	188
0	1087	140.264282950269	189
0	1105	141.534132174285	190
0	1105	141.534132174285	191
0	1111	143.022843778668	192
0	1111	143.022843778668	193
0	1114	144.154856254183	194
0	1114	144.154856254183	195
0	1124	145.403798030759	196
0	1124	145.403798030759	197
0	1127	147.382059649634	198
0	1127	147.382059649634	199
0	1145	148.587401475129	200
0	1145	148.587401475129	201
0	1160	150.561840336607	202
0	1160	150.561840336607	203
0	1174	151.697032489651	204
0	1174	151.697032489651	205
0	1192	153.103134973976	206
0	1192	153.103134973976	207
0	1206	154.719930915232	208
0	1206	154.719930915232	209
0	1224	155.983120834991	210
0	1224	155.983120834991	211
0	1242	157.712620054442	212
0	1242	157.712620054442	213
0	1253	158.926762976056	214
0	1253	158.926762976056	215
0	1256	160.819905345865	216
0	1256	160.819905345865	217
0	1270	161.9190035044	218
0	1270	161.9190035044	219
0	1273	163.588382341505	220
0	1273	163.588382341505	221
0	1287	165.027834518419	222
0	1287	165.027834518419	223
0	1290	167.006574842918	224
0	1290	167.006574842918	225
0	1301	168.423064739748	226
0	1301	168.423064739748	227
0	1316	170.058530526308	228
0	1316	170.058530526308	229
0	1319	171.985970337947	230
0	1319	171.985970337947	231
0	1322	173.938354364435	232
0	1322	173.938354364435	233
0	1340	175.310948824814	234
0	1340	175.310948824814	235
0	1355	176.388574237774	236
0	1355	176.388574237774	237
0	1365	177.926452981147	238
0	1365	177.926452981147	239
0	1371	179.891003931479	240
0	1371	179.891003931479	241
0	1389	181.066660678785	242
0	1389	181.066660678785	243
0	1392	182.072910815783	244
0	1392	182.072910815783	245
0	1406	183.138706921207	246
0	1406	183.138706921207	247
0	1424	184.561918986568	248
0	1424	184.561918986568	249
0	1439	185.880267577085	250
0	1439	185.880267577085	251
0	1442	187.34643549619	252
0	1442	187.34643549619	253
0	1460	189.031221459226	254
0	1460	189.031221459226	255
0	1463	190.608162428092	256
0	1463	190.608162428092	257
0	1477	191.771169120285	258
0	1477	191.771169120285	259
0	1488	193.2748223027	260
0	1488	193.2748223027	261
0	1494	195.186745982689	262
0	1494	195.186745982689	263
0	1497	196.831898429969	264
0	1497	196.831898429969	265
0	1515	198.341074535928	266
0	1515	198.341074535928	267
0	1533	199.687676659159	268
0	1533	199.687676659159	269
0	1551	201.443268847724	270
0	1551	201.443268847724	271
0	1569	202.55729588012	272
0	1569	202.55729588012	273
0	1583	204.298484151091	274
0	1583	204.298484151091	275
0	1586	205.912449207695	276
0	1586	205.912449207695	277
0	1596	207.236015495917	278
0	1596	207.236015495917	279
0	1610	208.962716020484	280
0	1610	208.962716020484	281
0	1624	210.909998939213	282
0	1624	210.909998939213	283
0	1642	212.412922366828	284
0	1642	212.412922366828	285
0	1652	214.258792380642	286
0	1652	214.258792380642	287
0	1670	215.94498498163	288
0	1670	215.94498498163	289
0	1688	217.799959184442	290
0	1688	217.799959184442	291
0	1694	219.719418765119	292
0	1694	219.719418765119	293
0	1704	220.827593070295	294
0	1704	220.827593070295	295
0	1710	221.850291457333	296
0	1710	221.850291457333	297
0	1724	223.314485131603	298
0	1724	223.314485131603	299
0	1742	224.700661856056	300
0	1742	224.700661856056	301
0	1753	226.157308528273	302
0	1753	226.157308528273	303
0	1767	227.356900990548	304
0	1767	227.356900990548	305
0	1785	228.916086502912	306
0	1785	228.916086502912	307
0	1803	230.231022495151	308
0	1803	230.231022495151	309
0	1806	231.955047483396	310
0	1806	231.955047483396	311
0	1812	233.530040261176	312
0	1812	233.530040261176	313
0	1823	235.331034847841	314
0	1823	235.331034847841	315
0	1834	237.06897319232	316
0	1834	237.06897319232	317
0	1837	238.736618823911	318
0	1837	238.736618823911	319
1	4	0.14297423212	0
1	4	0.14297423212	1
1	4	0.14297423212	2
1	36	5.406684365779	3
1	36	5.406684365779	4
1	36	5.406684365779	5
1	53	6.426140525879	6
1	53	6.426140525879	7
1	53	6.426140525879	8
1	75	9.596262396026	9
1	75	9.596262396026	10
1	75	9.596262396026	11
1	92	11.005377362256	12
1	92	11.005377362256	13
1	92	11.005377362256	14
1	120	14.391465776689	15
1	120	14.391465776689	16
1	120	14.391465776689	17
1	131	15.708841245391	18
1	131	15.708841245391	19
1	131	15.708841245391	20
1	146	17.035801499801	21
1	146	17.035801499801	22
1	146	17.035801499801	23
1	170	21.248059781241	24
1	170	21.248059781241	25
1	170	21.248059781241	26
1	188	22.924502556255	27
1	188	22.924502556255	28
1	188	22.924502556255	29
1	209	24.291392465032	30
1	209	24.291392465032	31
1	209	24.291392465032	32
1	250	29.992386860842	33
1	250	29.992386860842	34
1	250	29.992386860842	35
1	264	32.229323280142	36
1	264	32.229323280142	37
1	264	32.229323280142	38
1	282	34.100712102481	39
1	282	34.100712102481	40
1	282	34.100712102481	41
1	313	40.9800359964	42
1	313	40.9800359964	43
1	313	40.9800359964	44
1	333	44.406592026495	45
1	333	44.406592026495	46
1	333	44.406592026495	47
1	351	46.220713094683	48
1	351	46.220713094683	49
1	351	46.220713094683	50
1	369	47.771211929722	51
1	369	47.771211929722	52
1	369	47.771211929722	53
1	382	52.478483351493	54
1	382	52.478483351493	55
1	382	52.478483351493	56
1	417	56.930337573272	57
1	417	56.930337573272	58
1	417	56.930337573272	59
1	428	57.991119844425	60
1	428	57.991119844425	61
1	428	57.991119844425	62
1	441	61.861545002995	63
1	441	61.861545002995	64
1	441	61.861545002995	65
1	452	62.89876503238	66
1	452	62.89876503238	67
1	452	62.89876503238	68
1	459	64.312942043779	69
1	459	64.312942043779	70
1	459	64.312942043779	71
1	477	65.749281663744	72
1	477	65.749281663744	73
1	477	65.749281663744	74
1	494	68.365672515812	75
1	494	68.365672515812	76
1	494	68.365672515812	77
1	512	69.855518947701	78
1	512	69.855518947701	79
1	512	69.855518947701	80
1	526	71.863683497074	81
1	526	71.863683497074	82
1	526	71.863683497074	83
1	550	74.638224318752	84
1	550	74.638224318752	85
1	550	74.638224318752	86
1	572	76.336780847991	87
1	572	76.336780847991	88
1	572	76.336780847991	89
1	586	78.203726623389	90
1	586	78.203726623389	91
1	586	78.203726623389	92
1	604	79.368922544191	93
1	604	79.368922544191	94
1	604	79.368922544191	95
1	621	82.364612626802	96
1	621	82.364612626802	97
1	621	82.364612626802	98
1	646	83.939691439538	99
1	646	83.939691439538	100
1	646	83.939691439538	101
1	673	87.820478322623	102
1	673	87.820478322623	103
1	673	87.820478322623	104
1	704	90.657971196542	105
1	704	90.657971196542	106
1	704	90.657971196542	107
1	715	92.594899060773	108
1	715	92.594899060773	109
1	715	92.594899060773	110
1	753	96.94624746551	111
1	753	96.94624746551	112
1	753	96.94624746551	113
1	764	97.946433951044	114
1	764	97.946433951044	115
1	764	97.946433951044	116
1	779	99.437618320026	117
1	779	99.437618320026	118
1	779	99.437618320026	119
1	797	101.195712483757	120
1	797	101.195712483757	121
1	797	101.195712483757	122
1	808	102.524921880821	123
1	808	102.524921880821	124
1	808	102.524921880821	125
1	836	105.340085250488	126
1	836	105.340085250488	127
1	836	105.340085250488	128
1	853	110.817672612323	129
1	853	110.817672612323	130
1	853	110.817672612323	131
1	870	114.565251775938	132
1	870	114.565251775938	133
1	870	114.565251775938	134
1	877	116.204368602427	135
1	877	116.204368602427	136
1	877	116.204368602427	137
1	891	117.713162498783	138
1	891	117.713162498783	139
1	891	117.713162498783	140
1	918	120.725017045186	141
1	918	120.725017045186	142
1	918	120.725017045186	143
1	929	121.794119779148	144
1	929	121.794119779148	145
1	929	121.794119779148	146
1	944	123.576498978752	147
1	944	123.576498978752	148
1	944	123.576498978752	149
1	962	125.02710340969	150
1	962	125.02710340969	151
1	962	125.02710340969	152
1	991	129.176974316105	153
1	991	129.176974316105	154
1	991	129.176974316105	155
1	1008	130.681269149093	156
1	1008	130.681269149093	157
1	1008	130.681269149093	158
1	1026	132.559636817655	159
1	1026	132.559636817655	160
1	1026	132.559636817655	161
1	1051	135.203219392013	162
1	1051	135.203219392013	163
1	1051	135.203219392013	164
1	1058	136.652151282434	165
1	1058	136.652151282434	166
1	1058	136.652151282434	167
1	1076	138.403437518183	168
1	1076	138.403437518183	169
1	1076	138.403437518183	170
1	1091	140.285035206903	171
1	1091	140.285035206903	172
1	1091	140.285035206903	173
1	1130	147.392102286765	174
1	1130	147.392102286765	175
1	1130	147.392102286765	176
1	1148	148.598878114478	177
1	1148	148.598878114478	178
1	1148	148.598878114478	179
1	1164	150.574935408329	180
1	1164	150.574935408329	181
1	1164	150.574935408329	182
1	1178	151.718641621061	183
1	1178	151.718641621061	184
1	1178	151.718641621061	185
1	1196	153.125104513071	186
1	1196	153.125104513071	187
1	1196	153.125104513071	188
1	1213	154.765945273799	189
1	1213	154.765945273799	190
1	1213	154.765945273799	191
1	1227	155.996122499743	192
1	1227	155.996122499743	193
1	1227	155.996122499743	194
1	1245	157.726541491778	195
1	1245	157.726541491778	196
1	1245	157.726541491778	197
1	1260	160.841324293027	198
1	1260	160.841324293027	199
1	1260	160.841324293027	200
1	1277	163.605535930429	201
1	1277	163.605535930429	202
1	1277	163.605535930429	203
1	1293	167.03089296474	204
1	1293	167.03089296474	205
1	1293	167.03089296474	206
1	1304	168.442205474828	207
1	1304	168.442205474828	208
1	1304	168.442205474828	209
1	1332	173.990827008196	210
1	1332	173.990827008196	211
1	1332	173.990827008196	212
1	1343	175.336801129223	213
1	1343	175.336801129223	214
1	1343	175.336801129223	215
1	1374	179.905768432539	216
1	1374	179.905768432539	217
1	1374	179.905768432539	218
1	1396	182.094631301193	219
1	1396	182.094631301193	220
1	1396	182.094631301193	221
1	1416	183.175646974937	222
1	1416	183.175646974937	223
1	1416	183.175646974937	224
1	1427	184.608567258532	225
1	1427	184.608567258532	226
1	1427	184.608567258532	227
1	1452	187.394589083613	228
1	1452	187.394589083613	229
1	1452	187.394589083613	230
1	1473	190.691411670837	231
1	1473	190.691411670837	232
1	1473	190.691411670837	233
1	1480	191.785312689507	234
1	1480	191.785312689507	235
1	1480	191.785312689507	236
1	1501	196.851189114223	237
1	1501	196.851189114223	238
1	1501	196.851189114223	239
1	1522	198.402828717658	240
1	1522	198.402828717658	241
1	1522	198.402828717658	242
1	1537	199.70408760958	243
1	1537	199.70408760958	244
1	1537	199.70408760958	245
1	1554	201.453857303326	246
1	1554	201.453857303326	247
1	1554	201.453857303326	248
1	1579	202.623226492662	249
1	1579	202.623226492662	250
1	1579	202.623226492662	251
1	1606	207.304755084729	252
1	1606	207.304755084729	253
1	1606	207.304755084729	254
1	1613	208.985376932451	255
1	1613	208.985376932451	256
1	1613	208.985376932451	257
1	1627	210.922859851477	258
1	1627	210.922859851477	259
1	1627	210.922859851477	260
1	1655	214.271892081406	261
1	1655	214.271892081406	262
1	1655	214.271892081406	263
1	1676	215.975484365091	264
1	1676	215.975484365091	265
1	1676	215.975484365091	266
1	1714	221.866102327257	267
1	1714	221.866102327257	268
1	1714	221.866102327257	269
1	1734	223.378230123746	270
1	1734	223.378230123746	271
1	1734	223.378230123746	272
1	1745	224.720446479266	273
1	1745	224.720446479266	274
1	1745	224.720446479266	275
1	1763	226.19491797055	276
1	1763	226.19491797055	277
1	1763	226.19491797055	278
1	1777	227.422712242299	279
1	1777	227.422712242299	280
1	1777	227.422712242299	281
1	1792	228.942939526397	282
1	1792	228.942939526397	283
1	1792	228.942939526397	284
1	1815	233.548882796893	285
1	1815	233.548882796893	286
1	1815	233.548882796893	287
1	1826	235.364467215836	288
1	1826	235.364467215836	289
1	1826	235.364467215836	290
2	8	0.158720088868	0
2	8	0.158720088868	1
2	8	0.158720088868	2
2	43	5.425518245224	3
2	43	5.425518245224	4
2	43	5.425518245224	5
2	64	6.463689374007	6
2	64	6.463689374007	7
2	64	6.463689374007	8
2	82	9.612591203346	9
2	82	9.612591203346	10
2	82	9.612591203346	11
2	98	11.02144012523	12
2	98	11.02144012523	13
2	98	11.02144012523	14
2	124	14.40561863842	15
2	124	14.40561863842	16
2	124	14.40561863842	17
2	139	15.754455825568	18
2	139	15.754455825568	19
2	139	15.754455825568	20
2	181	21.284195232603	21
2	181	21.284195232603	22
2	181	21.284195232603	23
2	193	22.939058682396	24
2	193	22.939058682396	25
2	193	22.939058682396	26
2	214	24.308103841785	27
2	214	24.308103841785	28
2	214	24.308103841785	29
2	254	30.008105373879	30
2	254	30.008105373879	31
2	254	30.008105373879	32
2	269	32.242338995318	33
2	269	32.242338995318	34
2	269	32.242338995318	35
2	323	41.007630631106	36
2	323	41.007630631106	37
2	323	41.007630631106	38
2	341	44.434415728751	39
2	341	44.434415728751	40
2	341	44.434415728751	41
2	356	46.235954179166	42
2	356	46.235954179166	43
2	356	46.235954179166	44
2	386	52.493079612362	45
2	386	52.493079612362	46
2	386	52.493079612362	47
2	421	56.94541482614	48
2	421	56.94541482614	49
2	421	56.94541482614	50
2	445	61.874751907583	51
2	445	61.874751907583	52
2	445	61.874751907583	53
2	464	64.325526032823	54
2	464	64.325526032823	55
2	464	64.325526032823	56
2	498	68.387393258237	57
2	498	68.387393258237	58
2	498	68.387393258237	59
2	554	74.64915180979	60
2	554	74.64915180979	61
2	554	74.64915180979	62
2	576	76.353834771755	63
2	576	76.353834771755	64
2	576	76.353834771755	65
2	608	79.389439130059	66
2	608	79.389439130059	67
2	608	79.389439130059	68
2	625	82.375689973743	69
2	625	82.375689973743	70
2	625	82.375689973743	71
2	650	83.957737977335	72
2	650	83.957737977335	73
2	650	83.957737977335	74
2	678	87.843635029415	75
2	678	87.843635029415	76
2	678	87.843635029415	77
2	708	90.675823337813	78
2	708	90.675823337813	79
2	708	90.675823337813	80
2	722	92.62686087098	81
2	722	92.62686087098	82
2	722	92.62686087098	83
2	757	96.973787892468	84
2	757	96.973787892468	85
2	757	96.973787892468	86
2	769	97.962612382063	87
2	769	97.962612382063	88
2	769	97.962612382063	89
2	783	99.448914821432	90
2	783	99.448914821432	91
2	783	99.448914821432	92
2	801	101.216684130706	93
2	801	101.216684130706	94
2	801	101.216684130706	95
2	812	102.542932344965	96
2	812	102.542932344965	97
2	812	102.542932344965	98
2	840	105.351650581153	99
2	840	105.351650581153	100
2	840	105.351650581153	101
2	899	117.750024603365	102
2	899	117.750024603365	103
2	899	117.750024603365	104
2	922	120.754637728558	105
2	922	120.754637728558	106
2	922	120.754637728558	107
2	934	121.819591876416	108
2	934	121.819591876416	109
2	934	121.819591876416	110
2	955	123.618906159757	111
2	955	123.618906159757	112
2	955	123.618906159757	113
2	966	125.038184572416	114
2	966	125.038184572416	115
2	966	125.038184572416	116
2	998	129.205207162904	117
2	998	129.205207162904	118
2	998	129.205207162904	119
2	1017	130.70952963809	120
2	1017	130.70952963809	121
2	1017	130.70952963809	122
2	1030	132.571284324058	123
2	1030	132.571284324058	124
2	1030	132.571284324058	125
2	1069	136.699442265332	126
2	1069	136.699442265332	127
2	1069	136.699442265332	128
2	1098	140.297521400678	129
2	1098	140.297521400678	130
2	1098	140.297521400678	131
2	1138	147.418692607892	132
2	1138	147.418692607892	133
2	1138	147.418692607892	134
2	1152	148.618721134965	135
2	1152	148.618721134965	136
2	1152	148.618721134965	137
2	1184	151.734386932072	138
2	1184	151.734386932072	139
2	1184	151.734386932072	140
2	1220	154.782570583533	141
2	1220	154.782570583533	142
2	1220	154.782570583533	143
2	1231	156.006829818519	144
2	1231	156.006829818519	145
2	1231	156.006829818519	146
2	1249	157.737512408148	147
2	1249	157.737512408148	148
2	1249	157.737512408148	149
2	1297	167.0500383476	150
2	1297	167.0500383476	151
2	1297	167.0500383476	152
2	1309	168.467475003623	153
2	1309	168.467475003623	154
2	1309	168.467475003623	155
2	1336	174.017322223438	156
2	1336	174.017322223438	157
2	1336	174.017322223438	158
2	1347	175.355058668909	159
2	1347	175.355058668909	160
2	1347	175.355058668909	161
2	1381	179.919755540401	162
2	1381	179.919755540401	163
2	1381	179.919755540401	164
2	1420	183.192767911654	165
2	1420	183.192767911654	166
2	1420	183.192767911654	167
2	1431	184.640545869147	168
2	1431	184.640545869147	169
2	1431	184.640545869147	170
2	1456	187.40708422051	171
2	1456	187.40708422051	172
2	1456	187.40708422051	173
2	1484	191.802577643427	174
2	1484	191.802577643427	175
2	1484	191.802577643427	176
2	1511	196.868905035397	177
2	1511	196.868905035397	178
2	1511	196.868905035397	179
2	1529	198.433629010348	180
2	1529	198.433629010348	181
2	1529	198.433629010348	182
2	1547	199.727278611243	183
2	1547	199.727278611243	184
2	1547	199.727278611243	185
2	1561	201.471111062585	186
2	1561	201.471111062585	187
2	1561	201.471111062585	188
2	1631	210.943642697321	189
2	1631	210.943642697321	190
2	1631	210.943642697321	191
2	1663	214.29377308714	192
2	1663	214.29377308714	193
2	1663	214.29377308714	194
2	1684	215.995785445796	195
2	1684	215.995785445796	196
2	1684	215.995785445796	197
2	1738	223.398977669235	198
2	1738	223.398977669235	199
2	1738	223.398977669235	200
2	1781	227.444508567163	201
2	1781	227.444508567163	202
2	1781	227.444508567163	203
2	1799	228.95419768077	204
2	1799	228.95419768077	205
2	1799	228.95419768077	206
2	1819	233.559108724927	207
2	1819	233.559108724927	208
2	1819	233.559108724927	209
3	9	0.161397929952	0
3	9	0.161397929952	1
3	9	0.161397929952	2
3	28	3.965373404184	3
3	28	3.965373404184	4
3	28	3.965373404184	5
3	42	5.419548390178	6
3	42	5.419548390178	7
3	42	5.419548390178	8
3	57	6.441050286199	9
3	57	6.441050286199	10
3	57	6.441050286199	11
3	81	9.611479912268	12
3	81	9.611479912268	13
3	81	9.611479912268	14
3	97	11.018634352155	15
3	97	11.018634352155	16
3	97	11.018634352155	17
3	116	14.369780350163	18
3	116	14.369780350163	19
3	116	14.369780350163	20
3	135	15.721620878871	21
3	135	15.721620878871	22
3	135	15.721620878871	23
3	150	17.048120393343	24
3	150	17.048120393343	25
3	150	17.048120393343	26
3	163	19.266380152656	27
3	163	19.266380152656	28
3	163	19.266380152656	29
3	177	21.261123493157	30
3	177	21.261123493157	31
3	177	21.261123493157	32
3	196	22.944544642389	33
3	196	22.944544642389	34
3	196	22.944544642389	35
3	213	24.302333273933	36
3	213	24.302333273933	37
3	213	24.302333273933	38
3	233	27.382076676313	39
3	233	27.382076676313	40
3	233	27.382076676313	41
3	246	29.979174051568	42
3	246	29.979174051568	43
3	246	29.979174051568	44
3	268	32.241186980033	45
3	268	32.241186980033	46
3	268	32.241186980033	47
3	286	34.12953257428	48
3	286	34.12953257428	49
3	286	34.12953257428	50
3	305	39.46406367196	51
3	305	39.46406367196	52
3	305	39.46406367196	53
3	319	40.99073568439	54
3	319	40.99073568439	55
3	319	40.99073568439	56
3	337	44.419024844571	57
3	337	44.419024844571	58
3	337	44.419024844571	59
3	355	46.23550844572	60
3	355	46.23550844572	61
3	355	46.23550844572	62
3	387	52.49574596093	63
3	387	52.49574596093	64
3	387	52.49574596093	65
3	400	54.287530747562	66
3	400	54.287530747562	67
3	400	54.287530747562	68
3	413	56.881668388983	69
3	413	56.881668388983	70
3	413	56.881668388983	71
3	463	64.324383267069	72
3	463	64.324383267069	73
3	463	64.324383267069	74
3	481	65.767653376335	75
3	481	65.767653376335	76
3	481	65.767653376335	77
3	499	68.393930027221	78
3	499	68.393930027221	79
3	499	68.393930027221	80
3	516	69.870732374802	81
3	516	69.870732374802	82
3	516	69.870732374802	83
3	530	71.877843690283	84
3	530	71.877843690283	85
3	530	71.877843690283	86
3	543	73.574486152873	87
3	543	73.574486152873	88
3	543	73.574486152873	89
3	558	74.663785387883	90
3	558	74.663785387883	91
3	558	74.663785387883	92
3	568	76.323901507749	93
3	568	76.323901507749	94
3	568	76.323901507749	95
3	587	78.2092171264	96
3	587	78.2092171264	97
3	587	78.2092171264	98
3	600	79.358044274258	99
3	600	79.358044274258	100
3	600	79.358044274258	101
3	626	82.380267650654	102
3	626	82.380267650654	103
3	626	82.380267650654	104
3	642	83.907485572468	105
3	642	83.907485572468	106
3	642	83.907485572468	107
3	666	86.685851990953	108
3	666	86.685851990953	109
3	666	86.685851990953	110
3	677	87.838997906201	111
3	677	87.838997906201	112
3	677	87.838997906201	113
3	700	90.646685188636	114
3	700	90.646685188636	115
3	700	90.646685188636	116
3	726	92.665812035668	117
3	726	92.665812035668	118
3	726	92.665812035668	119
3	739	95.69477910919	120
3	739	95.69477910919	121
3	739	95.69477910919	122
3	749	96.930686354057	123
3	749	96.930686354057	124
3	749	96.930686354057	125
3	768	97.957520777009	126
3	768	97.957520777009	127
3	768	97.957520777009	128
3	793	101.179343533506	129
3	793	101.179343533506	130
3	793	101.179343533506	131
3	816	102.566497610526	132
3	816	102.566497610526	133
3	816	102.566497610526	134
3	832	105.32400772559	135
3	832	105.32400772559	136
3	832	105.32400772559	137
3	866	114.550794917227	138
3	866	114.550794917227	139
3	866	114.550794917227	140
3	882	116.245191973963	141
3	882	116.245191973963	142
3	882	116.245191973963	143
3	895	117.739538112521	144
3	895	117.739538112521	145
3	895	117.739538112521	146
3	933	121.809835919058	147
3	933	121.809835919058	148
3	933	121.809835919058	149
3	948	123.589635942263	150
3	948	123.589635942263	151
3	948	123.589635942263	152
3	967	125.047454632531	153
3	967	125.047454632531	154
3	967	125.047454632531	155
3	983	127.730778593464	156
3	983	127.730778593464	157
3	983	127.730778593464	158
3	997	129.197256330647	159
3	997	129.197256330647	160
3	997	129.197256330647	161
3	1012	130.692925064275	162
3	1012	130.692925064275	163
3	1012	130.692925064275	164
3	1034	132.582752047611	165
3	1034	132.582752047611	166
3	1034	132.582752047611	167
3	1047	135.188042816679	168
3	1047	135.188042816679	169
3	1047	135.188042816679	170
3	1062	136.664722431675	171
3	1062	136.664722431675	172
3	1062	136.664722431675	173
3	1081	138.427802386124	174
3	1081	138.427802386124	175
3	1081	138.427802386124	176
3	1094	140.292637927491	177
3	1094	140.292637927491	178
3	1094	140.292637927491	179
3	1120	144.192159288404	180
3	1120	144.192159288404	181
3	1120	144.192159288404	182
3	1137	147.409074695716	183
3	1137	147.409074695716	184
3	1137	147.409074695716	185
3	1153	148.624055653758	186
3	1153	148.624055653758	187
3	1153	148.624055653758	188
3	1170	150.587240988336	189
3	1170	150.587240988336	190
3	1170	150.587240988336	191
3	1185	151.738191211211	192
3	1185	151.738191211211	193
3	1185	151.738191211211	194
3	1202	153.15449513005	195
3	1202	153.15449513005	196
3	1202	153.15449513005	197
3	1212	154.758452932355	198
3	1212	154.758452932355	199
3	1212	154.758452932355	200
3	1236	156.017348464515	201
3	1236	156.017348464515	202
3	1236	156.017348464515	203
3	1266	160.854025468444	204
3	1266	160.854025468444	205
3	1266	160.854025468444	206
3	1283	163.62678286342	207
3	1283	163.62678286342	208
3	1283	163.62678286342	209
3	1308	168.466157439482	210
3	1308	168.466157439482	211
3	1308	168.466157439482	212
3	1328	173.970698075177	213
3	1328	173.970698075177	214
3	1328	173.970698075177	215
3	1351	175.365946962741	216
3	1351	175.365946962741	217
3	1351	175.365946962741	218
3	1361	176.422605003423	219
3	1361	176.422605003423	220
3	1361	176.422605003423	221
3	1385	179.932595199596	222
3	1385	179.932595199596	223
3	1385	179.932595199596	224
3	1402	182.107372669118	225
3	1402	182.107372669118	226
3	1402	182.107372669118	227
3	1412	183.164398346218	228
3	1412	183.164398346218	229
3	1412	183.164398346218	230
3	1432	184.64465065307	231
3	1432	184.64465065307	232
3	1432	184.64465065307	233
3	1448	187.36984866575	234
3	1448	187.36984866575	235
3	1448	187.36984866575	236
3	1469	190.645712710344	237
3	1469	190.645712710344	238
3	1469	190.645712710344	239
3	1504	196.855252785558	240
3	1504	196.855252785558	241
3	1504	196.855252785558	242
3	1521	198.395003005514	243
3	1521	198.395003005514	244
3	1521	198.395003005514	245
3	1540	199.709594683135	246
3	1540	199.709594683135	247
3	1540	199.709594683135	248
3	1565	201.483145505565	249
3	1565	201.483145505565	250
3	1565	201.483145505565	251
3	1575	202.596858411168	252
3	1575	202.596858411168	253
3	1575	202.596858411168	254
3	1592	205.952605454309	255
3	1592	205.952605454309	256
3	1592	205.952605454309	257
3	1602	207.260222820017	258
3	1602	207.260222820017	259
3	1602	207.260222820017	260
3	1617	208.999980689384	261
3	1617	208.999980689384	262
3	1617	208.999980689384	263
3	1638	210.965652188862	264
3	1638	210.965652188862	265
3	1638	210.965652188862	266
3	1648	212.453246446149	267
3	1648	212.453246446149	268
3	1648	212.453246446149	269
3	1660	214.288084384364	270
3	1660	214.288084384364	271
3	1660	214.288084384364	272
3	1677	215.98175104954	273
3	1677	215.98175104954	274
3	1677	215.98175104954	275
3	1700	219.765864324964	276
3	1700	219.765864324964	277
3	1700	219.765864324964	278
3	1717	221.871837401281	279
3	1717	221.871837401281	280
3	1717	221.871837401281	281
3	1730	223.364049223016	282
3	1730	223.364049223016	283
3	1730	223.364049223016	284
3	1749	224.73265604389	285
3	1749	224.73265604389	286
3	1749	224.73265604389	287
3	1759	226.181140435835	288
3	1759	226.181140435835	289
3	1759	226.181140435835	290
3	1773	227.402457624315	291
3	1773	227.402457624315	292
3	1773	227.402457624315	293
3	1791	228.941904768494	294
3	1791	228.941904768494	295
3	1791	228.941904768494	296
3	1830	235.377184639473	297
3	1830	235.377184639473	298
3	1830	235.377184639473	299
4	25	3.944095416066	0
4	25	3.944095416066	1
4	35	5.401501523856	2
4	35	5.401501523856	3
4	61	6.452590161975	4
4	61	6.452590161975	5
4	74	9.593293722959	6
4	74	9.593293722959	7
4	93	11.014994959681	8
4	93	11.014994959681	9
4	113	14.348033202502	10
4	113	14.348033202502	11
4	160	19.255144720075	12
4	160	19.255144720075	13
4	171	21.248550096413	14
4	171	21.248550096413	15
4	189	22.932367522527	16
4	189	22.932367522527	17
4	206	24.274142102439	18
4	206	24.274142102439	19
4	224	25.464947702216	20
4	224	25.464947702216	21
4	230	27.371679719837	22
4	230	27.371679719837	23
4	243	29.962654415725	24
4	243	29.962654415725	25
4	270	32.24425074502	26
4	270	32.24425074502	27
4	290	34.143209698156	28
4	290	34.143209698156	29
4	302	39.435652886608	30
4	302	39.435652886608	31
4	312	40.978442310336	32
4	312	40.978442310336	33
4	342	44.441738649592	34
4	342	44.441738649592	35
4	357	46.237843287896	36
4	357	46.237843287896	37
4	397	54.276820620722	38
4	397	54.276820620722	39
4	410	56.862078877988	40
4	410	56.862078877988	41
4	471	64.348681180691	42
4	471	64.348681180691	43
4	488	67.023306950809	44
4	488	67.023306950809	45
4	506	68.42253771361	46
4	506	68.42253771361	47
4	520	69.896644721594	48
4	520	69.896644721594	49
4	534	71.896199591353	50
4	534	71.896199591353	51
4	540	73.564253231451	52
4	540	73.564253231451	53
4	565	76.29129287808	54
4	565	76.29129287808	55
4	583	78.191269135763	56
4	583	78.191269135763	57
4	597	79.307481013704	58
4	597	79.307481013704	59
4	615	80.803967558212	60
4	615	80.803967558212	61
4	633	82.392621158725	62
4	633	82.392621158725	63
4	639	83.890816406496	64
4	639	83.890816406496	65
4	657	85.417945485749	66
4	657	85.417945485749	67
4	663	86.675348986457	68
4	663	86.675348986457	69
4	685	87.856482473459	70
4	685	87.856482473459	71
4	691	89.570073015828	72
4	691	89.570073015828	73
4	697	90.636260124934	74
4	697	90.636260124934	75
4	716	92.599815462242	76
4	716	92.599815462242	77
4	736	95.682926631176	78
4	736	95.682926631176	79
4	746	96.915146335374	80
4	746	96.915146335374	81
4	790	101.154928847713	82
4	790	101.154928847713	83
4	820	102.580305571468	84
4	820	102.580305571468	85
4	829	105.309830172858	86
4	829	105.309830172858	87
4	863	114.507847277022	88
4	863	114.507847277022	89
4	881	116.237296489155	90
4	881	116.237296489155	91
4	900	117.756134895094	92
4	900	117.756134895094	93
4	909	119.615569063239	94
4	909	119.615569063239	95
4	915	120.712669428814	96
4	915	120.712669428814	97
4	952	123.603538088903	98
4	952	123.603538088903	99
4	980	127.717459997413	100
4	980	127.717459997413	101
4	990	129.176777749573	102
4	990	129.176777749573	103
4	1016	130.703500149422	104
4	1016	130.703500149422	105
4	1044	135.167264845613	106
4	1044	135.167264845613	107
4	1066	136.678226321616	108
4	1066	136.678226321616	109
4	1080	138.425247314646	110
4	1080	138.425247314646	111
4	1090	140.281093211993	112
4	1090	140.281093211993	113
4	1108	141.560788903665	114
4	1108	141.560788903665	115
4	1117	144.175961840566	116
4	1117	144.175961840566	117
4	1131	147.39625728266	118
4	1131	147.39625728266	119
4	1163	150.571853570674	120
4	1163	150.571853570674	121
4	1177	151.712910772484	122
4	1177	151.712910772484	123
4	1195	153.120159740074	124
4	1195	153.120159740074	125
4	1209	154.745592843717	126
4	1209	154.745592843717	127
4	1232	156.010424774141	128
4	1232	156.010424774141	129
4	1259	160.834299443699	130
4	1259	160.834299443699	131
4	1276	163.602935546641	132
4	1276	163.602935546641	133
4	1325	173.948399650551	134
4	1325	173.948399650551	135
4	1358	176.408748020291	136
4	1358	176.408748020291	137
4	1368	177.939728915731	138
4	1368	177.939728915731	139
4	1375	179.906973883228	140
4	1375	179.906973883228	141
4	1395	182.086601728419	142
4	1395	182.086601728419	143
4	1409	183.148897978226	144
4	1409	183.148897978226	145
4	1445	187.359035054354	146
4	1445	187.359035054354	147
4	1466	190.627859401083	148
4	1466	190.627859401083	149
4	1491	193.308307847077	150
4	1491	193.308307847077	151
4	1500	196.843495837717	152
4	1500	196.843495837717	153
4	1518	198.359262569099	154
4	1518	198.359262569099	155
4	1536	199.699205321648	156
4	1536	199.699205321648	157
4	1555	201.455576578133	158
4	1555	201.455576578133	159
4	1572	202.579518841783	160
4	1572	202.579518841783	161
4	1589	205.939068045678	162
4	1589	205.939068045678	163
4	1599	207.248065800724	164
4	1599	207.248065800724	165
4	1621	209.010675219697	166
4	1621	209.010675219697	167
4	1635	210.954937453324	168
4	1635	210.954937453324	169
4	1645	212.42910194166	170
4	1645	212.42910194166	171
4	1656	214.27936109765	172
4	1656	214.27936109765	173
4	1673	215.962325198156	174
4	1673	215.962325198156	175
4	1691	217.810479875008	176
4	1691	217.810479875008	177
4	1697	219.747736877766	178
4	1697	219.747736877766	179
4	1707	220.838580233379	180
4	1707	220.838580233379	181
4	1713	221.861726744587	182
4	1713	221.861726744587	183
4	1727	223.328453433725	184
4	1727	223.328453433725	185
4	1756	226.169360157062	186
4	1756	226.169360157062	187
4	1770	227.388351051835	188
4	1770	227.388351051835	189
4	1788	228.929065950044	190
4	1788	228.929065950044	191
4	1809	231.984572803485	192
4	1809	231.984572803485	193
4	1840	238.7652678602	194
4	1840	238.7652678602	195

