version 2
run General-4-20231008-05:36:16-14327
attr configname General
attr datetime 20231008-05:36:16
attr experiment General
attr inifile omnetpp.ini
attr iterationvars ""
attr iterationvarsf ""
attr measurement ""
attr network Reliability
attr processid 14327
attr repetition 4
attr replication #4
attr resultdir results
attr runnumber 4
attr seedset 4
param Reliability.node[*].transmissionTime "uniform(1s, 2s)"
param Reliability.node[*].delayTime "uniform(0.01s, 0.2s)"
param Reliability.node[*].processingTime exponential(0.01s)
param Reliability.node[*].lossProbability 0.3

vector 0 Reliability.node[0] txVector ETV
vector 1 Reliability.node[1] txVector ETV
vector 2 Reliability.node[3] txVector ETV
vector 3 Reliability.node[2] txVector ETV
vector 4 Reliability.node[4] txVector ETV
vector 5 Reliability.node[5] rxVector ETV
0	1	0.193735669288	0
0	17	2.094357123985	1
0	23	3.997535650306	2
0	39	5.569892142121	3
0	55	7.380954246655	4
0	71	9.246837001679	5
0	87	10.458017557313	6
0	103	12.035014526139	7
0	119	13.271155848552	8
0	135	14.969321453397	9
0	148	16.04930069336	10
0	164	17.114368501271	11
0	180	18.798391716474	12
0	182	20.465319486487	13
0	198	21.614046327456	14
0	210	23.050812617096	15
0	226	24.674381455791	16
0	242	25.798396076926	17
0	244	27.561389725109	18
0	246	29.314209925163	19
0	248	31.29541984984	20
0	250	33.268697847298	21
0	266	34.308788968867	22
0	268	35.581260430079	23
0	281	37.530929373728	24
0	297	38.940564862836	25
0	313	40.505909223493	26
0	329	42.293567873455	27
0	345	44.170645777286	28
0	351	45.575859341455	29
0	353	46.889225967611	30
0	362	48.8793428877	31
0	364	50.254683032781	32
0	366	51.284457030855	33
0	382	52.82223870038	34
0	398	54.15808810844	35
0	404	55.32320622323	36
0	406	57.181927072964	37
0	419	58.521151978205	38
0	421	60.229296852284	39
0	430	61.254698553736	40
0	432	62.311904474076	41
0	434	63.860709596573	42
0	450	65.46050708616	43
0	466	67.39940106022	44
0	472	68.522190309277	45
0	474	69.755970739208	46
0	490	71.139550748661	47
0	506	72.296082954768	48
0	522	73.680230618369	49
0	538	75.106248372382	50
0	550	76.77370290147	51
0	566	78.351066597652	52
0	582	79.779221578183	53
0	598	81.098646769215	54
0	614	82.15637186976	55
0	616	83.727606073635	56
0	632	84.847087990174	57
0	645	86.611296829449	58
0	661	87.733746776737	59
0	674	89.477716266092	60
0	676	91.039578535508	61
0	685	92.89707177147	62
0	694	93.954653110501	63
0	710	95.657782988536	64
0	712	97.263927207707	65
0	728	99.246439077339	66
0	744	100.748993597372	67
0	760	102.444047275378	68
0	776	104.316431258252	69
0	792	105.819096742809	70
0	808	107.620810832508	71
0	824	109.095737904456	72
0	826	110.796545136866	73
0	828	111.984237853584	74
0	844	113.317029457453	75
0	846	115.229329179886	76
0	855	116.501122594725	77
0	864	118.362445927139	78
0	877	120.326195368923	79
0	886	122.201372797049	80
0	888	123.696242515144	81
0	904	125.460234563711	82
0	920	127.145163410257	83
0	932	128.809834376124	84
0	948	130.793800086861	85
0	960	132.164024216735	86
0	966	134.049482120115	87
0	982	135.885539015669	88
0	998	137.040910653451	89
0	1014	138.802096208239	90
0	1030	140.586383695629	91
0	1039	142.170834375227	92
0	1055	143.235833046174	93
0	1071	144.684513171584	94
0	1083	146.386944309956	95
0	1099	147.603285684165	96
0	1115	149.461398486196	97
0	1117	150.802196025531	98
0	1119	152.132242668336	99
0	1125	154.02559063063	100
0	1127	155.056162395198	101
0	1143	156.294907048494	102
0	1152	157.357914110329	103
0	1168	158.504225716377	104
0	1170	159.54442356309	105
0	1186	160.621982731308	106
0	1195	162.296810756588	107
0	1197	163.476655933924	108
0	1213	164.958416361978	109
0	1215	166.181532729801	110
0	1221	167.979381164687	111
0	1223	169.468805896735	112
0	1236	170.517455384519	113
0	1242	171.594886529876	114
0	1244	173.065833905164	115
0	1253	174.611157366225	116
0	1269	176.415624363731	117
0	1285	178.310767977649	118
0	1291	179.443134838167	119
0	1307	180.653366075048	120
0	1323	181.713553118903	121
0	1329	182.776034475222	122
0	1342	184.001269765349	123
0	1358	185.344386954244	124
0	1374	186.936461346375	125
0	1390	188.614329800626	126
0	1399	190.397710731171	127
0	1401	191.829337199137	128
0	1410	193.672737544554	129
0	1426	194.968329810922	130
0	1442	196.364412570291	131
0	1444	197.882987487747	132
0	1460	199.119841567392	133
0	1466	200.686034744058	134
0	1468	202.64205216841	135
0	1470	204.135327060392	136
0	1472	205.79959711983	137
0	1488	207.164226473227	138
0	1504	209.013348714134	139
0	1506	210.189422921429	140
0	1519	211.192468900385	141
0	1531	213.004415322247	142
0	1547	214.920745163842	143
0	1563	216.543851845118	144
0	1575	217.749621571193	145
0	1591	219.576816441177	146
0	1597	221.543209056987	147
0	1609	223.123895707459	148
0	1625	224.692941299326	149
0	1634	225.898319580511	150
0	1636	227.305412790657	151
0	1638	228.662401375745	152
0	1654	230.443048442632	153
0	1670	231.716403967619	154
0	1686	233.425120177131	155
0	1698	235.053304381121	156
0	1714	236.616231837694	157
0	1730	238.572437796195	158
1	3	0.205631491707	0
1	3	0.205631491707	1
1	3	0.205631491707	2
1	19	2.114380052882	3
1	19	2.114380052882	4
1	19	2.114380052882	5
1	25	4.012021929042	6
1	25	4.012021929042	7
1	25	4.012021929042	8
1	41	5.580084222522	9
1	41	5.580084222522	10
1	41	5.580084222522	11
1	57	7.409503036227	12
1	57	7.409503036227	13
1	57	7.409503036227	14
1	73	9.258830302664	15
1	73	9.258830302664	16
1	73	9.258830302664	17
1	89	10.472351169091	18
1	89	10.472351169091	19
1	89	10.472351169091	20
1	105	12.061669580247	21
1	105	12.061669580247	22
1	105	12.061669580247	23
1	121	13.28556220908	24
1	121	13.28556220908	25
1	121	13.28556220908	26
1	137	14.979778205802	27
1	137	14.979778205802	28
1	137	14.979778205802	29
1	150	16.067067606075	30
1	150	16.067067606075	31
1	150	16.067067606075	32
1	166	17.131597427386	33
1	166	17.131597427386	34
1	166	17.131597427386	35
1	184	20.479853755081	36
1	184	20.479853755081	37
1	184	20.479853755081	38
1	200	21.627069847745	39
1	200	21.627069847745	40
1	200	21.627069847745	41
1	212	23.061681103186	42
1	212	23.061681103186	43
1	212	23.061681103186	44
1	228	24.698633035593	45
1	228	24.698633035593	46
1	228	24.698633035593	47
1	252	33.278858849211	48
1	252	33.278858849211	49
1	252	33.278858849211	50
1	270	35.604289872848	51
1	270	35.604289872848	52
1	270	35.604289872848	53
1	283	37.557580841858	54
1	283	37.557580841858	55
1	283	37.557580841858	56
1	299	38.972727812044	57
1	299	38.972727812044	58
1	299	38.972727812044	59
1	315	40.526428182929	60
1	315	40.526428182929	61
1	315	40.526428182929	62
1	331	42.312650054678	63
1	331	42.312650054678	64
1	331	42.312650054678	65
1	347	44.211005159478	66
1	347	44.211005159478	67
1	347	44.211005159478	68
1	355	46.9207712732	69
1	355	46.9207712732	70
1	355	46.9207712732	71
1	368	51.323612996547	72
1	368	51.323612996547	73
1	368	51.323612996547	74
1	384	52.856040345732	75
1	384	52.856040345732	76
1	384	52.856040345732	77
1	400	54.170711448349	78
1	400	54.170711448349	79
1	400	54.170711448349	80
1	408	57.19692340337	81
1	408	57.19692340337	82
1	408	57.19692340337	83
1	423	60.240762789216	84
1	423	60.240762789216	85
1	423	60.240762789216	86
1	436	63.903346581332	87
1	436	63.903346581332	88
1	436	63.903346581332	89
1	452	65.477080392514	90
1	452	65.477080392514	91
1	452	65.477080392514	92
1	468	67.412038830459	93
1	468	67.412038830459	94
1	468	67.412038830459	95
1	476	69.766409197836	96
1	476	69.766409197836	97
1	476	69.766409197836	98
1	492	71.192399547863	99
1	492	71.192399547863	100
1	492	71.192399547863	101
1	508	72.307918941014	102
1	508	72.307918941014	103
1	508	72.307918941014	104
1	524	73.692381317731	105
1	524	73.692381317731	106
1	524	73.692381317731	107
1	540	75.11695618809	108
1	540	75.11695618809	109
1	540	75.11695618809	110
1	552	76.788969667157	111
1	552	76.788969667157	112
1	552	76.788969667157	113
1	568	78.368114890479	114
1	568	78.368114890479	115
1	568	78.368114890479	116
1	584	79.80231465184	117
1	584	79.80231465184	118
1	584	79.80231465184	119
1	600	81.121510626328	120
1	600	81.121510626328	121
1	600	81.121510626328	122
1	618	83.753511468846	123
1	618	83.753511468846	124
1	618	83.753511468846	125
1	634	84.857403337168	126
1	634	84.857403337168	127
1	634	84.857403337168	128
1	647	86.622355740874	129
1	647	86.622355740874	130
1	647	86.622355740874	131
1	663	87.75091086117	132
1	663	87.75091086117	133
1	663	87.75091086117	134
1	678	91.055255470128	135
1	678	91.055255470128	136
1	678	91.055255470128	137
1	687	92.910519437386	138
1	687	92.910519437386	139
1	687	92.910519437386	140
1	696	93.966251594409	141
1	696	93.966251594409	142
1	696	93.966251594409	143
1	714	97.274144244864	144
1	714	97.274144244864	145
1	714	97.274144244864	146
1	730	99.272357122191	147
1	730	99.272357122191	148
1	730	99.272357122191	149
1	746	100.765763841214	150
1	746	100.765763841214	151
1	746	100.765763841214	152
1	762	102.457750537748	153
1	762	102.457750537748	154
1	762	102.457750537748	155
1	778	104.335107775853	156
1	778	104.335107775853	157
1	778	104.335107775853	158
1	794	105.843015178116	159
1	794	105.843015178116	160
1	794	105.843015178116	161
1	810	107.632107793114	162
1	810	107.632107793114	163
1	810	107.632107793114	164
1	830	111.995526775432	165
1	830	111.995526775432	166
1	830	111.995526775432	167
1	848	115.249469651952	168
1	848	115.249469651952	169
1	848	115.249469651952	170
1	857	116.513581001501	171
1	857	116.513581001501	172
1	857	116.513581001501	173
1	866	118.39047610814	174
1	866	118.39047610814	175
1	866	118.39047610814	176
1	879	120.347213572479	177
1	879	120.347213572479	178
1	879	120.347213572479	179
1	890	123.713605574502	180
1	890	123.713605574502	181
1	890	123.713605574502	182
1	906	125.48630804201	183
1	906	125.48630804201	184
1	906	125.48630804201	185
1	922	127.18500174289	186
1	922	127.18500174289	187
1	922	127.18500174289	188
1	934	128.82546515778	189
1	934	128.82546515778	190
1	934	128.82546515778	191
1	950	130.810379776375	192
1	950	130.810379776375	193
1	950	130.810379776375	194
1	962	132.1802331638	195
1	962	132.1802331638	196
1	962	132.1802331638	197
1	968	134.082273109501	198
1	968	134.082273109501	199
1	968	134.082273109501	200
1	984	135.917653472942	201
1	984	135.917653472942	202
1	984	135.917653472942	203
1	1000	137.072081542131	204
1	1000	137.072081542131	205
1	1000	137.072081542131	206
1	1016	138.834445382048	207
1	1016	138.834445382048	208
1	1016	138.834445382048	209
1	1032	140.597054706789	210
1	1032	140.597054706789	211
1	1032	140.597054706789	212
1	1041	142.195127328922	213
1	1041	142.195127328922	214
1	1041	142.195127328922	215
1	1057	143.258896676561	216
1	1057	143.258896676561	217
1	1057	143.258896676561	218
1	1073	144.712459522666	219
1	1073	144.712459522666	220
1	1073	144.712459522666	221
1	1085	146.401846349798	222
1	1085	146.401846349798	223
1	1085	146.401846349798	224
1	1101	147.62209703811	225
1	1101	147.62209703811	226
1	1101	147.62209703811	227
1	1121	152.174365763375	228
1	1121	152.174365763375	229
1	1121	152.174365763375	230
1	1129	155.066920213796	231
1	1129	155.066920213796	232
1	1129	155.066920213796	233
1	1145	156.319100532167	234
1	1145	156.319100532167	235
1	1145	156.319100532167	236
1	1154	157.387753323921	237
1	1154	157.387753323921	238
1	1154	157.387753323921	239
1	1172	159.592588953788	240
1	1172	159.592588953788	241
1	1172	159.592588953788	242
1	1188	160.63368554668	243
1	1188	160.63368554668	244
1	1188	160.63368554668	245
1	1199	163.502128420273	246
1	1199	163.502128420273	247
1	1199	163.502128420273	248
1	1217	166.194964421454	249
1	1217	166.194964421454	250
1	1217	166.194964421454	251
1	1225	169.487406531944	252
1	1225	169.487406531944	253
1	1225	169.487406531944	254
1	1238	170.529645257925	255
1	1238	170.529645257925	256
1	1238	170.529645257925	257
1	1246	173.095711440842	258
1	1246	173.095711440842	259
1	1246	173.095711440842	260
1	1255	174.631751006227	261
1	1255	174.631751006227	262
1	1255	174.631751006227	263
1	1271	176.436618892395	264
1	1271	176.436618892395	265
1	1271	176.436618892395	266
1	1287	178.331252539463	267
1	1287	178.331252539463	268
1	1287	178.331252539463	269
1	1293	179.459263377703	270
1	1293	179.459263377703	271
1	1293	179.459263377703	272
1	1309	180.6831200036	273
1	1309	180.6831200036	274
1	1309	180.6831200036	275
1	1325	181.731453858919	276
1	1325	181.731453858919	277
1	1325	181.731453858919	278
1	1331	182.78752586679	279
1	1331	182.78752586679	280
1	1331	182.78752586679	281
1	1344	184.016360607826	282
1	1344	184.016360607826	283
1	1344	184.016360607826	284
1	1360	185.366608708016	285
1	1360	185.366608708016	286
1	1360	185.366608708016	287
1	1376	186.97284137708	288
1	1376	186.97284137708	289
1	1376	186.97284137708	290
1	1392	188.624992978569	291
1	1392	188.624992978569	292
1	1392	188.624992978569	293
1	1403	191.840811888269	294
1	1403	191.840811888269	295
1	1403	191.840811888269	296
1	1412	193.685539956208	297
1	1412	193.685539956208	298
1	1412	193.685539956208	299
1	1428	194.991695340314	300
1	1428	194.991695340314	301
1	1428	194.991695340314	302
1	1446	197.906554563751	303
1	1446	197.906554563751	304
1	1446	197.906554563751	305
1	1462	199.13061718107	306
1	1462	199.13061718107	307
1	1462	199.13061718107	308
1	1474	205.814021242785	309
1	1474	205.814021242785	310
1	1474	205.814021242785	311
1	1490	207.184350244176	312
1	1490	207.184350244176	313
1	1490	207.184350244176	314
1	1508	210.207157938244	315
1	1508	210.207157938244	316
1	1508	210.207157938244	317
1	1521	211.209131096153	318
1	1521	211.209131096153	319
1	1521	211.209131096153	320
1	1533	213.051820493991	321
1	1533	213.051820493991	322
1	1533	213.051820493991	323
1	1549	214.943381871904	324
1	1549	214.943381871904	325
1	1549	214.943381871904	326
1	1565	216.554901907407	327
1	1565	216.554901907407	328
1	1565	216.554901907407	329
1	1577	217.791874245856	330
1	1577	217.791874245856	331
1	1577	217.791874245856	332
1	1593	219.594686035495	333
1	1593	219.594686035495	334
1	1593	219.594686035495	335
1	1599	221.570436543996	336
1	1599	221.570436543996	337
1	1599	221.570436543996	338
1	1611	223.152481819734	339
1	1611	223.152481819734	340
1	1611	223.152481819734	341
1	1627	224.71562219376	342
1	1627	224.71562219376	343
1	1627	224.71562219376	344
1	1640	228.673878598672	345
1	1640	228.673878598672	346
1	1640	228.673878598672	347
1	1656	230.457997304589	348
1	1656	230.457997304589	349
1	1656	230.457997304589	350
1	1672	231.729556182134	351
1	1672	231.729556182134	352
1	1672	231.729556182134	353
1	1688	233.441733508494	354
1	1688	233.441733508494	355
1	1688	233.441733508494	356
1	1700	235.066392655848	357
1	1700	235.066392655848	358
1	1700	235.066392655848	359
1	1716	236.627982891448	360
1	1716	236.627982891448	361
1	1716	236.627982891448	362
1	1732	238.601658411047	363
1	1732	238.601658411047	364
1	1732	238.601658411047	365
2	7	0.227595799025	0
2	7	0.227595799025	1
2	30	4.031118406069	2
2	30	4.031118406069	3
2	45	5.619089142538	4
2	45	5.619089142538	5
2	65	7.447240383605	6
2	65	7.447240383605	7
2	84	9.301543804535	8
2	84	9.301543804535	9
2	93	10.485277172604	10
2	93	10.485277172604	11
2	109	12.072456835069	12
2	109	12.072456835069	13
2	126	13.304051772752	14
2	126	13.304051772752	15
2	141	14.992229928531	16
2	141	14.992229928531	17
2	154	16.0866013772	18
2	154	16.0866013772	19
2	173	17.159384010009	20
2	173	17.159384010009	21
2	188	20.491514634484	22
2	188	20.491514634484	23
2	204	21.637820135997	24
2	204	21.637820135997	25
2	217	23.085444338086	26
2	217	23.085444338086	27
2	235	24.733584036908	28
2	235	24.733584036908	29
2	263	33.332988133011	30
2	263	33.332988133011	31
2	274	35.615336011468	32
2	274	35.615336011468	33
2	287	37.580326658837	34
2	287	37.580326658837	35
2	307	38.996200269254	36
2	307	38.996200269254	37
2	319	40.540990549441	38
2	319	40.540990549441	39
2	335	42.336482724739	40
2	335	42.336482724739	41
2	359	46.931855984915	42
2	359	46.931855984915	43
2	373	51.338358657017	44
2	373	51.338358657017	45
2	388	52.871282532668	46
2	388	52.871282532668	47
2	412	57.208238485111	48
2	412	57.208238485111	49
2	443	63.939274232559	50
2	443	63.939274232559	51
2	463	65.528608313147	52
2	463	65.528608313147	53
2	483	69.796767343168	54
2	483	69.796767343168	55
2	496	71.207892716491	56
2	496	71.207892716491	57
2	512	72.322313633393	58
2	512	72.322313633393	59
2	528	73.711150091918	60
2	528	73.711150091918	61
2	547	75.154068133835	62
2	547	75.154068133835	63
2	557	76.805721485642	64
2	557	76.805721485642	65
2	572	78.380576014643	66
2	572	78.380576014643	67
2	588	79.812820479681	68
2	588	79.812820479681	69
2	604	81.134283266902	70
2	604	81.134283266902	71
2	629	83.815029813608	72
2	629	83.815029813608	73
2	655	86.651209389746	74
2	655	86.651209389746	75
2	682	91.068642112488	76
2	682	91.068642112488	77
2	691	92.936411516921	78
2	691	92.936411516921	79
2	700	93.986721505339	80
2	700	93.986721505339	81
2	718	97.284586695055	82
2	718	97.284586695055	83
2	734	99.284215814581	84
2	734	99.284215814581	85
2	750	100.782064032001	86
2	750	100.782064032001	87
2	766	102.468151710713	88
2	766	102.468151710713	89
2	785	104.356562903239	90
2	785	104.356562903239	91
2	802	105.868482061729	92
2	802	105.868482061729	93
2	814	107.649397611972	94
2	814	107.649397611972	95
2	835	112.023867539585	96
2	835	112.023867539585	97
2	861	116.524053742047	98
2	861	116.524053742047	99
2	870	118.41901790168	100
2	870	118.41901790168	101
2	894	123.727234538912	102
2	894	123.727234538912	103
2	917	125.530686832691	104
2	917	125.530686832691	105
2	926	127.197771930868	106
2	926	127.197771930868	107
2	938	128.840877488763	108
2	938	128.840877488763	109
2	957	130.855983598837	110
2	957	130.855983598837	111
2	972	134.093484393479	112
2	972	134.093484393479	113
2	988	135.931485409321	114
2	988	135.931485409321	115
2	1004	137.082491661241	116
2	1004	137.082491661241	117
2	1020	138.845344816598	118
2	1020	138.845344816598	119
2	1036	140.611776777252	120
2	1036	140.611776777252	121
2	1045	142.205314783952	122
2	1045	142.205314783952	123
2	1061	143.269612681731	124
2	1061	143.269612681731	125
2	1078	144.724396525408	126
2	1078	144.724396525408	127
2	1096	146.447511460872	128
2	1096	146.447511460872	129
2	1105	147.641618635783	130
2	1105	147.641618635783	131
2	1133	155.083344071662	132
2	1133	155.083344071662	133
2	1159	157.410767576342	134
2	1159	157.410767576342	135
2	1176	159.604371542779	136
2	1176	159.604371542779	137
2	1203	163.523463020456	138
2	1203	163.523463020456	139
2	1229	169.500668329492	140
2	1229	169.500668329492	141
2	1250	173.107198051009	142
2	1250	173.107198051009	143
2	1266	174.736833127561	144
2	1266	174.736833127561	145
2	1276	176.448801023781	146
2	1276	176.448801023781	147
2	1298	179.475484771436	148
2	1298	179.475484771436	149
2	1313	180.703107289566	150
2	1313	180.703107289566	151
2	1349	184.030414286059	152
2	1349	184.030414286059	153
2	1371	185.415886128683	154
2	1371	185.415886128683	155
2	1380	186.983340684105	156
2	1380	186.983340684105	157
2	1396	188.636951489976	158
2	1396	188.636951489976	159
2	1407	191.866507119567	160
2	1407	191.866507119567	161
2	1416	193.702678591067	162
2	1416	193.702678591067	163
2	1433	195.014566830279	164
2	1433	195.014566830279	165
2	1450	197.929038405842	166
2	1450	197.929038405842	167
2	1485	205.884276952538	168
2	1485	205.884276952538	169
2	1494	207.200116454637	170
2	1494	207.200116454637	171
2	1525	211.224176825842	172
2	1525	211.224176825842	173
2	1537	213.064074810223	174
2	1537	213.064074810223	175
2	1553	214.955288012145	176
2	1553	214.955288012145	177
2	1569	216.568638795101	178
2	1569	216.568638795101	179
2	1581	217.80290408804	180
2	1581	217.80290408804	181
2	1604	221.58096123007	182
2	1604	221.58096123007	183
2	1622	223.233546702759	184
2	1622	223.233546702759	185
2	1631	224.729976842725	186
2	1631	224.729976842725	187
2	1645	228.699969670218	188
2	1645	228.699969670218	189
2	1660	230.470998070995	190
2	1660	230.470998070995	191
2	1676	231.751754983556	192
2	1676	231.751754983556	193
2	1692	233.457625192908	194
2	1692	233.457625192908	195
2	1711	235.15294826803	196
2	1711	235.15294826803	197
2	1727	236.687664886476	198
2	1727	236.687664886476	199
3	8	0.228177698444	0
3	8	0.228177698444	1
3	29	4.023811308844	2
3	29	4.023811308844	3
3	52	5.641769708437	4
3	52	5.641769708437	5
3	61	7.427008867656	6
3	61	7.427008867656	7
3	77	9.273963514055	8
3	77	9.273963514055	9
3	94	10.49395605926	10
3	94	10.49395605926	11
3	116	12.123167223505	12
3	116	12.123167223505	13
3	125	13.299584530057	14
3	125	13.299584530057	15
3	161	16.11138914574	16
3	161	16.11138914574	17
3	170	17.142977817999	18
3	170	17.142977817999	19
3	189	20.491806704342	20
3	189	20.491806704342	21
3	205	21.63826343178	22
3	205	21.63826343178	23
3	216	23.07866567719	24
3	216	23.07866567719	25
3	232	24.722712686162	26
3	232	24.722712686162	27
3	256	33.301836667865	28
3	256	33.301836667865	29
3	290	37.593591911667	30
3	290	37.593591911667	31
3	303	38.984175210125	32
3	303	38.984175210125	33
3	320	40.542307781627	34
3	320	40.542307781627	35
3	342	42.365579550474	36
3	342	42.365579550474	37
3	372	51.334535361852	38
3	372	51.334535361852	39
3	395	52.925533809248	40
3	395	52.925533809248	41
3	427	60.25541229278	42
3	427	60.25541229278	43
3	440	63.916811858213	44
3	440	63.916811858213	45
3	456	65.492007799493	46
3	456	65.492007799493	47
3	480	69.778436726301	48
3	480	69.778436726301	49
3	503	71.23884786044	50
3	503	71.23884786044	51
3	515	72.333918473522	52
3	515	72.333918473522	53
3	535	73.743689776018	54
3	535	73.743689776018	55
3	544	75.126994989647	56
3	544	75.126994989647	57
3	556	76.801727582037	58
3	556	76.801727582037	59
3	579	78.414995671258	60
3	579	78.414995671258	61
3	589	79.813517779351	62
3	589	79.813517779351	63
3	605	81.141879638707	64
3	605	81.141879638707	65
3	622	83.770805600066	66
3	622	83.770805600066	67
3	638	84.8727121977	68
3	638	84.8727121977	69
3	651	86.633012197536	70
3	651	86.633012197536	71
3	667	87.762678283472	72
3	667	87.762678283472	73
3	707	94.021999654373	74
3	707	94.021999654373	75
3	719	97.293295464505	76
3	719	97.293295464505	77
3	735	99.288351766172	78
3	735	99.288351766172	79
3	753	100.80141806842	80
3	753	100.80141806842	81
3	767	102.471527825829	82
3	767	102.471527825829	83
3	782	104.345674294244	84
3	782	104.345674294244	85
3	798	105.854609888589	86
3	798	105.854609888589	87
3	821	107.680593177394	88
3	821	107.680593177394	89
3	834	112.016183418274	90
3	834	112.016183418274	91
3	852	115.259627485949	92
3	852	115.259627485949	93
3	883	120.361423730548	94
3	883	120.361423730548	95
3	901	123.772873544909	96
3	901	123.772873544909	97
3	910	125.496957944341	98
3	910	125.496957944341	99
3	927	127.199794524298	100
3	927	127.199794524298	101
3	945	128.871582186819	102
3	945	128.871582186819	103
3	954	130.82109511142	104
3	954	130.82109511142	105
3	973	134.097248552896	106
3	973	134.097248552896	107
3	992	135.944987170151	108
3	992	135.944987170151	109
3	1005	137.088474839883	110
3	1005	137.088474839883	111
3	1023	138.861284935356	112
3	1023	138.861284935356	113
3	1046	142.211518354287	114
3	1046	142.211518354287	115
3	1062	143.270326009375	116
3	1062	143.270326009375	117
3	1077	144.722865758141	118
3	1077	144.722865758141	119
3	1089	146.419955083315	120
3	1089	146.419955083315	121
3	1112	147.668128037734	122
3	1112	147.668128037734	123
3	1134	155.08681402908	124
3	1134	155.08681402908	125
3	1149	156.341844298157	126
3	1149	156.341844298157	127
3	1158	157.410633841566	128
3	1158	157.410633841566	129
3	1179	159.616540845497	130
3	1179	159.616540845497	131
3	1192	160.662200176648	132
3	1192	160.662200176648	133
3	1204	163.523742775946	134
3	1204	163.523742775946	135
3	1259	174.688343250747	136
3	1259	174.688343250747	137
3	1275	176.447959769005	138
3	1275	176.447959769005	139
3	1297	179.469735717008	140
3	1297	179.469735717008	141
3	1320	180.746678096834	142
3	1320	180.746678096834	143
3	1335	182.818629153129	144
3	1335	182.818629153129	145
3	1348	184.026533743216	146
3	1348	184.026533743216	147
3	1364	185.385943088942	148
3	1364	185.385943088942	149
3	1387	187.023173327549	150
3	1387	187.023173327549	151
3	1417	193.703829168276	152
3	1417	193.703829168276	153
3	1432	195.009718028648	154
3	1432	195.009718028648	155
3	1457	197.958305214592	156
3	1457	197.958305214592	157
3	1478	205.829372158978	158
3	1478	205.829372158978	159
3	1501	207.268650057015	160
3	1501	207.268650057015	161
3	1512	210.218667122466	162
3	1512	210.218667122466	163
3	1526	211.228365342689	164
3	1526	211.228365342689	165
3	1538	213.065800989696	166
3	1538	213.065800989696	167
3	1554	214.955712702823	168
3	1554	214.955712702823	169
3	1572	216.595161201985	170
3	1572	216.595161201985	171
3	1588	217.868648166593	172
3	1588	217.868648166593	173
3	1603	221.580830172243	174
3	1603	221.580830172243	175
3	1615	223.191276887854	176
3	1615	223.191276887854	177
3	1644	228.69589439622	178
3	1644	228.69589439622	179
3	1667	230.519951392068	180
3	1667	230.519951392068	181
3	1679	231.762683351582	182
3	1679	231.762683351582	183
3	1693	233.459018260958	184
3	1693	233.459018260958	185
3	1704	235.085692414806	186
3	1704	235.085692414806	187
3	1720	236.640434990312	188
3	1720	236.640434990312	189
4	13	0.240720247832	0
4	13	0.240720247832	1
4	13	0.240720247832	2
4	35	4.044217325469	3
4	35	4.044217325469	4
4	35	4.044217325469	5
4	48	5.630990648826	6
4	48	5.630990648826	7
4	48	5.630990648826	8
4	64	7.440033063421	9
4	64	7.440033063421	10
4	64	7.440033063421	11
4	80	9.289020236699	12
4	80	9.289020236699	13
4	80	9.289020236699	14
4	97	10.498192863564	15
4	97	10.498192863564	16
4	97	10.498192863564	17
4	112	12.10751401691	18
4	112	12.10751401691	19
4	112	12.10751401691	20
4	131	13.322806132209	21
4	131	13.322806132209	22
4	131	13.322806132209	23
4	144	15.009460508846	24
4	144	15.009460508846	25
4	144	15.009460508846	26
4	157	16.101170587708	27
4	157	16.101170587708	28
4	157	16.101170587708	29
4	176	17.169592734146	30
4	176	17.169592734146	31
4	176	17.169592734146	32
4	194	20.507912998636	33
4	194	20.507912998636	34
4	194	20.507912998636	35
4	220	23.092934372832	36
4	220	23.092934372832	37
4	220	23.092934372832	38
4	236	24.734621625651	39
4	236	24.734621625651	40
4	236	24.734621625651	41
4	259	33.312005257652	42
4	259	33.312005257652	43
4	259	33.312005257652	44
4	277	35.652808158746	45
4	277	35.652808158746	46
4	277	35.652808158746	47
4	293	37.613163485358	48
4	293	37.613163485358	49
4	293	37.613163485358	50
4	306	38.995448734632	51
4	306	38.995448734632	52
4	306	38.995448734632	53
4	325	40.562020134188	54
4	325	40.562020134188	55
4	325	40.562020134188	56
4	338	42.347435842548	57
4	338	42.347435842548	58
4	338	42.347435842548	59
4	378	51.371622741521	60
4	378	51.371622741521	61
4	378	51.371622741521	62
4	391	52.886076355624	63
4	391	52.886076355624	64
4	391	52.886076355624	65
4	415	57.238141598201	66
4	415	57.238141598201	67
4	415	57.238141598201	68
4	446	63.962611261906	69
4	446	63.962611261906	70
4	446	63.962611261906	71
4	459	65.509998994436	72
4	459	65.509998994436	73
4	459	65.509998994436	74
4	484	69.798546422802	75
4	484	69.798546422802	76
4	484	69.798546422802	77
4	499	71.218843238823	78
4	499	71.218843238823	79
4	499	71.218843238823	80
4	516	72.34262247431	81
4	516	72.34262247431	82
4	516	72.34262247431	83
4	531	73.732094007212	84
4	531	73.732094007212	85
4	531	73.732094007212	86
4	562	76.817283566077	87
4	562	76.817283566077	88
4	562	76.817283566077	89
4	575	78.391890967971	90
4	575	78.391890967971	91
4	575	78.391890967971	92
4	594	79.828011669009	93
4	594	79.828011669009	94
4	594	79.828011669009	95
4	610	81.164530401876	96
4	610	81.164530401876	97
4	610	81.164530401876	98
4	625	83.804755069702	99
4	625	83.804755069702	100
4	625	83.804755069702	101
4	641	84.884191721861	102
4	641	84.884191721861	103
4	641	84.884191721861	104
4	654	86.648084648646	105
4	654	86.648084648646	106
4	654	86.648084648646	107
4	670	87.778050703742	108
4	670	87.778050703742	109
4	670	87.778050703742	110
4	703	94.010621856099	111
4	703	94.010621856099	112
4	703	94.010621856099	113
4	724	97.31377172697	114
4	724	97.31377172697	115
4	724	97.31377172697	116
4	740	99.304850851673	117
4	740	99.304850851673	118
4	740	99.304850851673	119
4	754	100.802139628859	120
4	754	100.802139628859	121
4	754	100.802139628859	122
4	770	102.479004174843	123
4	770	102.479004174843	124
4	770	102.479004174843	125
4	788	104.372316583371	126
4	788	104.372316583371	127
4	788	104.372316583371	128
4	801	105.86472981813	129
4	801	105.86472981813	130
4	801	105.86472981813	131
4	817	107.662099208791	132
4	817	107.662099208791	133
4	817	107.662099208791	134
4	838	112.028800523367	135
4	838	112.028800523367	136
4	838	112.028800523367	137
4	873	118.431858820765	138
4	873	118.431858820765	139
4	873	118.431858820765	140
4	897	123.747935080231	141
4	897	123.747935080231	142
4	897	123.747935080231	143
4	913	125.517203065682	144
4	913	125.517203065682	145
4	913	125.517203065682	146
4	941	128.854312894894	147
4	941	128.854312894894	148
4	941	128.854312894894	149
4	978	134.113176654857	150
4	978	134.113176654857	151
4	978	134.113176654857	152
4	991	135.944072047995	153
4	991	135.944072047995	154
4	991	135.944072047995	155
4	1010	137.105189173074	156
4	1010	137.105189173074	157
4	1010	137.105189173074	158
4	1024	138.864151333901	159
4	1024	138.864151333901	160
4	1024	138.864151333901	161
4	1049	142.220613182341	162
4	1049	142.220613182341	163
4	1049	142.220613182341	164
4	1067	143.286372940026	165
4	1067	143.286372940026	166
4	1067	143.286372940026	167
4	1092	146.431418925439	168
4	1092	146.431418925439	169
4	1092	146.431418925439	170
4	1108	147.657324529196	171
4	1108	147.657324529196	172
4	1108	147.657324529196	173
4	1139	155.110177305739	174
4	1139	155.110177305739	175
4	1139	155.110177305739	176
4	1164	157.439297898533	177
4	1164	157.439297898533	178
4	1164	157.439297898533	179
4	1182	159.63146398677	180
4	1182	159.63146398677	181
4	1182	159.63146398677	182
4	1209	163.535919413576	183
4	1209	163.535919413576	184
4	1209	163.535919413576	185
4	1232	169.515101600675	186
4	1232	169.515101600675	187
4	1232	169.515101600675	188
4	1262	174.722170654701	189
4	1262	174.722170654701	190
4	1262	174.722170654701	191
4	1281	176.466436710167	192
4	1281	176.466436710167	193
4	1281	176.466436710167	194
4	1303	179.486027792984	195
4	1303	179.486027792984	196
4	1303	179.486027792984	197
4	1316	180.732251641751	198
4	1316	180.732251641751	199
4	1316	180.732251641751	200
4	1338	182.844617374437	201
4	1338	182.844617374437	202
4	1338	182.844617374437	203
4	1354	184.054526782801	204
4	1354	184.054526782801	205
4	1354	184.054526782801	206
4	1367	185.40266596178	207
4	1367	185.40266596178	208
4	1367	185.40266596178	209
4	1383	187.005993013526	210
4	1383	187.005993013526	211
4	1383	187.005993013526	212
4	1422	193.75444633568	213
4	1422	193.75444633568	214
4	1422	193.75444633568	215
4	1438	195.031503662568	216
4	1438	195.031503662568	217
4	1438	195.031503662568	218
4	1453	197.947055757616	219
4	1453	197.947055757616	220
4	1453	197.947055757616	221
4	1481	205.843386218975	222
4	1481	205.843386218975	223
4	1481	205.843386218975	224
4	1497	207.242539151856	225
4	1497	207.242539151856	226
4	1497	207.242539151856	227
4	1515	210.234035129046	228
4	1515	210.234035129046	229
4	1515	210.234035129046	230
4	1543	213.08288147668	231
4	1543	213.08288147668	232
4	1543	213.08288147668	233
4	1559	214.986888227247	234
4	1559	214.986888227247	235
4	1559	214.986888227247	236
4	1584	217.845784885153	237
4	1584	217.845784885153	238
4	1584	217.845784885153	239
4	1618	223.216206777437	240
4	1618	223.216206777437	241
4	1618	223.216206777437	242
4	1650	228.732762122102	243
4	1650	228.732762122102	244
4	1650	228.732762122102	245
4	1663	230.481650944941	246
4	1663	230.481650944941	247
4	1663	230.481650944941	248
4	1682	231.824032737666	249
4	1682	231.824032737666	250
4	1682	231.824032737666	251
4	1707	235.129349089095	252
4	1707	235.129349089095	253
4	1707	235.129349089095	254
4	1723	236.663184568681	255
4	1723	236.663184568681	256
4	1723	236.663184568681	257
5	38	4.054217325469	0
5	51	5.640990648826	1
5	83	9.299020236699	2
5	102	10.508192863564	3
5	115	12.11751401691	4
5	160	16.111170587708	5
5	179	17.179592734146	6
5	197	20.517912998636	7
5	241	24.744621625651	8
5	262	33.322005257652	9
5	280	35.662808158746	10
5	296	37.623163485358	11
5	310	39.005448734632	12
5	328	40.572020134188	13
5	341	42.357435842548	14
5	381	51.381622741521	15
5	418	57.248141598201	16
5	449	63.972611261906	17
5	462	65.519998994436	18
5	489	69.808546422802	19
5	502	71.228843238823	20
5	521	72.35262247431	21
5	534	73.742094007212	22
5	578	78.401890967971	23
5	597	79.838011669009	24
5	613	81.174530401876	25
5	644	84.894191721861	26
5	658	86.658084648646	27
5	673	87.788050703742	28
5	706	94.020621856099	29
5	727	97.32377172697	30
5	743	99.314850851673	31
5	759	100.812139628859	32
5	820	107.672099208791	33
5	843	112.038800523367	34
5	944	128.864312894894	35
5	981	134.123176654857	36
5	995	135.954072047995	37
5	1029	138.874151333901	38
5	1054	142.230613182341	39
5	1070	143.296372940026	40
5	1095	146.441418925439	41
5	1142	155.120177305739	42
5	1319	180.742251641751	43
5	1341	182.854617374437	44
5	1357	184.064526782801	45
5	1370	185.41266596178	46
5	1386	187.015993013526	47
5	1425	193.76444633568	48
5	1441	195.041503662568	49
5	1456	197.957055757616	50
5	1484	205.853386218975	51
5	1500	207.252539151856	52
5	1546	213.09288147668	53
5	1587	217.855784885153	54
5	1653	228.742762122102	55
5	1685	231.834032737666	56
5	1710	235.139349089095	57
5	1726	236.673184568681	58

