version 2
run General-0-20231008-05:36:16-14327
attr configname General
attr datetime 20231008-05:36:16
attr experiment General
attr inifile omnetpp.ini
attr iterationvars ""
attr iterationvarsf ""
attr measurement ""
attr network Reliability
attr processid 14327
attr repetition 0
attr replication #0
attr resultdir results
attr runnumber 0
attr seedset 0
param Reliability.node[*].transmissionTime "uniform(1s, 2s)"
param Reliability.node[*].delayTime "uniform(0.01s, 0.2s)"
param Reliability.node[*].processingTime exponential(0.01s)
param Reliability.node[*].lossProbability 0.3

vector 0 Reliability.node[0] txVector ETV
vector 1 Reliability.node[1] txVector ETV
vector 2 Reliability.node[3] txVector ETV
vector 3 Reliability.node[2] txVector ETV
vector 4 Reliability.node[4] txVector ETV
vector 5 Reliability.node[5] rxVector ETV
0	1	0.114274565438	0
0	17	1.707119181827	1
0	33	2.979775476344	2
0	49	4.348017013706	3
0	65	6.068649665294	4
0	74	7.285200022002	5
0	90	8.902134020654	6
0	92	10.572771894354	7
0	108	11.783154456019	8
0	124	12.9920312146	9
0	137	14.648360806591	10
0	139	16.322020437642	11
0	152	18.293965436592	12
0	168	19.576772396061	13
0	181	21.143373844521	14
0	197	22.152730546268	15
0	199	23.522538642008	16
0	215	24.668980405275	17
0	217	26.307901485432	18
0	233	28.199455916258	19
0	249	29.449252191307	20
0	265	31.068060752312	21
0	267	32.170924112276	22
0	283	33.263297998887	23
0	296	34.360557925497	24
0	305	36.074799223878	25
0	321	37.583114674157	26
0	330	38.956405426916	27
0	332	40.812208769918	28
0	348	41.823922851431	29
0	364	43.617620553897	30
0	380	45.194849139155	31
0	382	46.593070206541	32
0	384	47.802913960611	33
0	386	48.989106966026	34
0	395	50.93347935456	35
0	397	52.018774921616	36
0	409	53.075193256216	37
0	411	54.929806839285	38
0	427	56.673641381628	39
0	429	57.810861802503	40
0	445	59.040081125527	41
0	461	60.465532662888	42
0	463	61.779225060326	43
0	479	63.736675916315	44
0	488	65.544256181299	45
0	497	67.261115861201	46
0	513	68.426074732636	47
0	519	70.157768491032	48
0	521	71.444683536496	49
0	523	73.121946843183	50
0	525	74.184985135757	51
0	541	75.740634372999	52
0	557	77.528176526382	53
0	573	79.236724675243	54
0	589	81.221756955684	55
0	591	82.342413952184	56
0	593	84.323113625712	57
0	609	85.729234113201	58
0	611	87.504453895457	59
0	613	89.430666828139	60
0	615	90.755977137324	61
0	627	92.708847808496	62
0	643	94.386259632961	63
0	645	95.97819479679	64
0	661	97.454672000681	65
0	674	98.96401406646	66
0	676	100.337827205968	67
0	678	101.925426842722	68
0	687	103.198248739664	69
0	703	104.91342748849	70
0	719	106.697075456225	71
0	721	107.856945522905	72
0	730	108.986357860577	73
0	746	110.444961817081	74
0	752	112.081022873598	75
0	768	113.87741434838	76
0	770	115.69818146814	77
0	776	117.607025179624	78
0	785	119.235923619087	79
0	798	120.963619956126	80
0	811	122.148852280652	81
0	827	123.204818110991	82
0	829	124.23728340709	83
0	831	125.817435126597	84
0	833	127.58852417868	85
0	835	128.96475076008	86
0	837	130.455775500819	87
0	853	132.437415181039	88
0	855	133.805517583698	89
0	861	135.11827087643	90
0	877	136.801843838844	91
0	889	138.540070419743	92
0	905	139.98915384671	93
0	907	141.217417460478	94
0	923	142.70692678246	95
0	939	144.081171365299	96
0	955	145.819561702975	97
0	971	146.951413738386	98
0	984	148.051445790644	99
0	986	149.948206947263	100
0	992	151.354940289011	101
0	1008	152.810384435424	102
0	1017	154.143891903184	103
0	1033	155.473827556552	104
0	1042	157.150941956633	105
0	1058	158.433641603527	106
0	1060	159.839583926446	107
0	1069	160.863897124849	108
0	1071	162.554790852204	109
0	1087	163.654207245059	110
0	1103	165.488025479097	111
0	1119	167.03048248527	112
0	1135	168.910589348137	113
0	1144	170.591286584347	114
0	1160	171.766058591738	115
0	1162	172.926289063956	116
0	1171	174.58740657925	117
0	1173	176.465899209104	118
0	1175	177.900054788528	119
0	1177	179.417666890737	120
0	1193	180.892334875264	121
0	1206	182.489637812446	122
0	1215	183.552845427613	123
0	1231	185.443498237836	124
0	1247	187.09580719246	125
0	1256	188.362504068142	126
0	1258	189.698002243027	127
0	1264	190.84568782112	128
0	1266	192.277969304085	129
0	1275	193.799965573786	130
0	1291	195.383369759735	131
0	1300	197.148364204061	132
0	1306	198.646141108204	133
0	1312	199.815166510953	134
0	1324	201.285787412277	135
0	1340	202.40310297891	136
0	1342	203.802264124932	137
0	1358	205.23402425026	138
0	1374	206.639059860804	139
0	1376	208.273846186777	140
0	1392	210.232988436786	141
0	1408	211.423555354667	142
0	1410	212.644951801594	143
0	1412	213.74496586396	144
0	1414	215.010005564509	145
0	1430	216.076155024894	146
0	1446	217.275751163565	147
0	1448	219.171442457322	148
0	1464	220.564011239527	149
0	1480	221.928923074236	150
0	1493	222.975729428079	151
0	1509	224.952531232812	152
0	1525	226.674715251742	153
0	1541	228.342430142999	154
0	1543	229.573500196064	155
0	1545	231.112368703202	156
0	1547	232.88540368186	157
0	1556	234.631987969239	158
0	1572	236.410159563494	159
0	1574	237.714358255348	160
0	1576	238.789717325789	161
1	3	0.142870607559	0
1	3	0.142870607559	1
1	3	0.142870607559	2
1	19	1.72361364531	3
1	19	1.72361364531	4
1	19	1.72361364531	5
1	35	3.021277175631	6
1	35	3.021277175631	7
1	35	3.021277175631	8
1	51	4.366740225656	9
1	51	4.366740225656	10
1	51	4.366740225656	11
1	67	6.080102445567	12
1	67	6.080102445567	13
1	67	6.080102445567	14
1	76	7.323979172215	15
1	76	7.323979172215	16
1	76	7.323979172215	17
1	94	10.584152181238	18
1	94	10.584152181238	19
1	94	10.584152181238	20
1	110	11.794913591473	21
1	110	11.794913591473	22
1	110	11.794913591473	23
1	126	13.003518337293	24
1	126	13.003518337293	25
1	126	13.003518337293	26
1	141	16.35307365065	27
1	141	16.35307365065	28
1	141	16.35307365065	29
1	154	18.305246004245	30
1	154	18.305246004245	31
1	154	18.305246004245	32
1	170	19.589856544462	33
1	170	19.589856544462	34
1	170	19.589856544462	35
1	183	21.171847121031	36
1	183	21.171847121031	37
1	183	21.171847121031	38
1	201	23.540969472329	39
1	201	23.540969472329	40
1	201	23.540969472329	41
1	219	26.329297565067	42
1	219	26.329297565067	43
1	219	26.329297565067	44
1	235	28.213213304682	45
1	235	28.213213304682	46
1	235	28.213213304682	47
1	251	29.46569323839	48
1	251	29.46569323839	49
1	251	29.46569323839	50
1	269	32.185294392414	51
1	269	32.185294392414	52
1	269	32.185294392414	53
1	285	33.314676096492	54
1	285	33.314676096492	55
1	285	33.314676096492	56
1	298	34.438211830696	57
1	298	34.438211830696	58
1	298	34.438211830696	59
1	307	36.086624609897	60
1	307	36.086624609897	61
1	307	36.086624609897	62
1	323	37.598563245438	63
1	323	37.598563245438	64
1	323	37.598563245438	65
1	334	40.826671298123	66
1	334	40.826671298123	67
1	334	40.826671298123	68
1	350	41.836457908482	69
1	350	41.836457908482	70
1	350	41.836457908482	71
1	366	43.6303372346	72
1	366	43.6303372346	73
1	366	43.6303372346	74
1	388	49.012560440358	75
1	388	49.012560440358	76
1	388	49.012560440358	77
1	399	52.035466058853	78
1	399	52.035466058853	79
1	399	52.035466058853	80
1	413	54.946319146604	81
1	413	54.946319146604	82
1	413	54.946319146604	83
1	431	57.842197435378	84
1	431	57.842197435378	85
1	431	57.842197435378	86
1	447	59.071738762336	87
1	447	59.071738762336	88
1	447	59.071738762336	89
1	465	61.795606946382	90
1	465	61.795606946382	91
1	465	61.795606946382	92
1	481	63.760422715853	93
1	481	63.760422715853	94
1	481	63.760422715853	95
1	490	65.559298980632	96
1	490	65.559298980632	97
1	490	65.559298980632	98
1	499	67.272449267434	99
1	499	67.272449267434	100
1	499	67.272449267434	101
1	515	68.436541610072	102
1	515	68.436541610072	103
1	515	68.436541610072	104
1	527	74.195077966001	105
1	527	74.195077966001	106
1	527	74.195077966001	107
1	543	75.759960491552	108
1	543	75.759960491552	109
1	543	75.759960491552	110
1	559	77.54507087176	111
1	559	77.54507087176	112
1	559	77.54507087176	113
1	575	79.260731432213	114
1	575	79.260731432213	115
1	575	79.260731432213	116
1	595	84.34153498874	117
1	595	84.34153498874	118
1	595	84.34153498874	119
1	617	90.766117603236	120
1	617	90.766117603236	121
1	617	90.766117603236	122
1	629	92.735477466303	123
1	629	92.735477466303	124
1	629	92.735477466303	125
1	647	95.99488782551	126
1	647	95.99488782551	127
1	647	95.99488782551	128
1	663	97.465575373122	129
1	663	97.465575373122	130
1	663	97.465575373122	131
1	680	101.940060742997	132
1	680	101.940060742997	133
1	680	101.940060742997	134
1	689	103.214998249401	135
1	689	103.214998249401	136
1	689	103.214998249401	137
1	705	104.931556472102	138
1	705	104.931556472102	139
1	705	104.931556472102	140
1	723	107.875594903999	141
1	723	107.875594903999	142
1	723	107.875594903999	143
1	732	109.009237480328	144
1	732	109.009237480328	145
1	732	109.009237480328	146
1	748	110.457706452301	147
1	748	110.457706452301	148
1	748	110.457706452301	149
1	754	112.123005423366	150
1	754	112.123005423366	151
1	754	112.123005423366	152
1	772	115.725083817688	153
1	772	115.725083817688	154
1	772	115.725083817688	155
1	778	117.622107374165	156
1	778	117.622107374165	157
1	778	117.622107374165	158
1	787	119.259480804226	159
1	787	119.259480804226	160
1	787	119.259480804226	161
1	800	120.978749226044	162
1	800	120.978749226044	163
1	800	120.978749226044	164
1	813	122.159757355353	165
1	813	122.159757355353	166
1	813	122.159757355353	167
1	839	130.468581260081	168
1	839	130.468581260081	169
1	839	130.468581260081	170
1	857	133.831704194362	171
1	857	133.831704194362	172
1	857	133.831704194362	173
1	863	135.133063003375	174
1	863	135.133063003375	175
1	863	135.133063003375	176
1	879	136.817770413023	177
1	879	136.817770413023	178
1	879	136.817770413023	179
1	891	138.577761864571	180
1	891	138.577761864571	181
1	891	138.577761864571	182
1	909	141.24962960231	183
1	909	141.24962960231	184
1	909	141.24962960231	185
1	925	142.720848395356	186
1	925	142.720848395356	187
1	925	142.720848395356	188
1	941	144.099276296771	189
1	941	144.099276296771	190
1	941	144.099276296771	191
1	957	145.841868891485	192
1	957	145.841868891485	193
1	957	145.841868891485	194
1	973	146.993666899223	195
1	973	146.993666899223	196
1	973	146.993666899223	197
1	988	149.966238314982	198
1	988	149.966238314982	199
1	988	149.966238314982	200
1	994	151.370077145144	201
1	994	151.370077145144	202
1	994	151.370077145144	203
1	1010	152.846175566732	204
1	1010	152.846175566732	205
1	1010	152.846175566732	206
1	1019	154.175895196388	207
1	1019	154.175895196388	208
1	1019	154.175895196388	209
1	1035	155.494017088363	210
1	1035	155.494017088363	211
1	1035	155.494017088363	212
1	1044	157.161248974363	213
1	1044	157.161248974363	214
1	1044	157.161248974363	215
1	1062	159.853778719681	216
1	1062	159.853778719681	217
1	1062	159.853778719681	218
1	1073	162.56821259912	219
1	1073	162.56821259912	220
1	1073	162.56821259912	221
1	1089	163.688833687753	222
1	1089	163.688833687753	223
1	1089	163.688833687753	224
1	1105	165.545289431066	225
1	1105	165.545289431066	226
1	1105	165.545289431066	227
1	1121	167.044461969216	228
1	1121	167.044461969216	229
1	1121	167.044461969216	230
1	1137	168.923973759465	231
1	1137	168.923973759465	232
1	1137	168.923973759465	233
1	1146	170.606215372031	234
1	1146	170.606215372031	235
1	1146	170.606215372031	236
1	1164	172.942091959836	237
1	1164	172.942091959836	238
1	1164	172.942091959836	239
1	1179	179.429704744559	240
1	1179	179.429704744559	241
1	1179	179.429704744559	242
1	1195	180.912806797819	243
1	1195	180.912806797819	244
1	1195	180.912806797819	245
1	1208	182.508983616609	246
1	1208	182.508983616609	247
1	1208	182.508983616609	248
1	1217	183.568512447211	249
1	1217	183.568512447211	250
1	1217	183.568512447211	251
1	1233	185.470742156691	252
1	1233	185.470742156691	253
1	1233	185.470742156691	254
1	1249	187.114109798928	255
1	1249	187.114109798928	256
1	1249	187.114109798928	257
1	1260	189.708649079078	258
1	1260	189.708649079078	259
1	1260	189.708649079078	260
1	1268	192.302801038165	261
1	1268	192.302801038165	262
1	1268	192.302801038165	263
1	1277	193.837527704561	264
1	1277	193.837527704561	265
1	1277	193.837527704561	266
1	1293	195.395465404592	267
1	1293	195.395465404592	268
1	1293	195.395465404592	269
1	1302	197.167065003165	270
1	1302	197.167065003165	271
1	1302	197.167065003165	272
1	1308	198.6757723411	273
1	1308	198.6757723411	274
1	1308	198.6757723411	275
1	1314	199.826397615502	276
1	1314	199.826397615502	277
1	1314	199.826397615502	278
1	1326	201.298951686189	279
1	1326	201.298951686189	280
1	1326	201.298951686189	281
1	1344	203.821796984244	282
1	1344	203.821796984244	283
1	1344	203.821796984244	284
1	1360	205.249222469709	285
1	1360	205.249222469709	286
1	1360	205.249222469709	287
1	1378	208.284936505413	288
1	1378	208.284936505413	289
1	1378	208.284936505413	290
1	1394	210.243181517838	291
1	1394	210.243181517838	292
1	1394	210.243181517838	293
1	1416	215.020684123289	294
1	1416	215.020684123289	295
1	1416	215.020684123289	296
1	1432	216.091828706091	297
1	1432	216.091828706091	298
1	1432	216.091828706091	299
1	1450	219.202510378581	300
1	1450	219.202510378581	301
1	1450	219.202510378581	302
1	1466	220.577034520907	303
1	1466	220.577034520907	304
1	1466	220.577034520907	305
1	1482	221.974235488241	306
1	1482	221.974235488241	307
1	1482	221.974235488241	308
1	1495	222.995109509235	309
1	1495	222.995109509235	310
1	1495	222.995109509235	311
1	1511	224.962865780403	312
1	1511	224.962865780403	313
1	1511	224.962865780403	314
1	1527	226.69319791984	315
1	1527	226.69319791984	316
1	1527	226.69319791984	317
1	1549	232.908184544799	318
1	1549	232.908184544799	319
1	1549	232.908184544799	320
1	1558	234.660582034963	321
1	1558	234.660582034963	322
1	1558	234.660582034963	323
1	1578	238.800855932362	324
1	1578	238.800855932362	325
1	1578	238.800855932362	326
2	7	0.158381092426	0
2	7	0.158381092426	1
2	24	1.742007973839	2
2	24	1.742007973839	3
2	39	3.05168609779	4
2	39	3.05168609779	5
2	55	4.384118498574	6
2	55	4.384118498574	7
2	81	7.34347411805	8
2	81	7.34347411805	9
2	98	10.598083306811	10
2	98	10.598083306811	11
2	121	11.841801834586	12
2	121	11.841801834586	13
2	130	13.01811847687	14
2	130	13.01811847687	15
2	158	18.316509890609	16
2	158	18.316509890609	17
2	187	21.185263662701	18
2	187	21.185263662701	19
2	212	23.592160698858	20
2	212	23.592160698858	21
2	223	26.351319950739	22
2	223	26.351319950739	23
2	240	28.23613239737	24
2	240	28.23613239737	25
2	256	29.486486440377	26
2	256	29.486486440377	27
2	280	32.236894500807	28
2	280	32.236894500807	29
2	289	33.332376865087	30
2	289	33.332376865087	31
2	302	34.468470918867	32
2	302	34.468470918867	33
2	311	36.11309180091	34
2	311	36.11309180091	35
2	327	37.613112363886	36
2	327	37.613112363886	37
2	345	40.879490208892	38
2	345	40.879490208892	39
2	354	41.855829295659	40
2	354	41.855829295659	41
2	371	43.651703199553	42
2	371	43.651703199553	43
2	403	52.050210221756	44
2	403	52.050210221756	45
2	420	54.979017546762	46
2	420	54.979017546762	47
2	436	57.861072454663	48
2	436	57.861072454663	49
2	451	59.09336989517	50
2	451	59.09336989517	51
2	476	61.835038157774	52
2	476	61.835038157774	53
2	510	67.346917238801	54
2	510	67.346917238801	55
2	531	74.208387064813	56
2	531	74.208387064813	57
2	547	75.776033284438	58
2	547	75.776033284438	59
2	570	77.613932630235	60
2	570	77.613932630235	61
2	579	79.273871411194	62
2	579	79.273871411194	63
2	599	84.375238864546	64
2	599	84.375238864546	65
2	621	90.777706935033	66
2	621	90.777706935033	67
2	634	92.753627649612	68
2	634	92.753627649612	69
2	652	96.016385239387	70
2	652	96.016385239387	71
2	684	101.956219935835	72
2	684	101.956219935835	73
2	693	103.228662762319	74
2	693	103.228662762319	75
2	709	104.943109327957	76
2	709	104.943109327957	77
2	727	107.909735068304	78
2	727	107.909735068304	79
2	737	109.02479406946	80
2	737	109.02479406946	81
2	762	112.163736175594	82
2	762	112.163736175594	83
2	782	117.637624410291	84
2	782	117.637624410291	85
2	817	122.188052776912	86
2	817	122.188052776912	87
2	850	130.56321466189	88
2	850	130.56321466189	89
2	867	135.150346779105	90
2	867	135.150346779105	91
2	884	136.853668674478	92
2	884	136.853668674478	93
2	895	138.592570646814	94
2	895	138.592570646814	95
2	913	141.260230886001	96
2	913	141.260230886001	97
2	929	142.732734042599	98
2	929	142.732734042599	99
2	945	144.117228518784	100
2	945	144.117228518784	101
2	962	145.85533322476	102
2	962	145.85533322476	103
2	977	147.003861792153	104
2	977	147.003861792153	105
2	998	151.387126638358	106
2	998	151.387126638358	107
2	1024	154.199369684625	108
2	1024	154.199369684625	109
2	1055	157.220583729191	110
2	1055	157.220583729191	111
2	1080	162.607944682515	112
2	1080	162.607944682515	113
2	1094	163.715636511754	114
2	1094	163.715636511754	115
2	1109	165.556242275895	116
2	1109	165.556242275895	117
2	1125	167.075002494055	118
2	1125	167.075002494055	119
2	1141	168.93520785418	120
2	1141	168.93520785418	121
2	1153	170.639897732561	122
2	1153	170.639897732561	123
2	1168	172.964014482257	124
2	1168	172.964014482257	125
2	1190	179.493931323243	126
2	1190	179.493931323243	127
2	1199	180.957946586049	128
2	1199	180.957946586049	129
2	1221	183.58262945299	130
2	1221	183.58262945299	131
2	1244	185.537889337282	132
2	1244	185.537889337282	133
2	1288	193.942559385114	134
2	1288	193.942559385114	135
2	1321	199.870588980529	136
2	1321	199.870588980529	137
2	1330	201.309558429191	138
2	1330	201.309558429191	139
2	1348	203.849079577974	140
2	1348	203.849079577974	141
2	1371	205.306162018189	142
2	1371	205.306162018189	143
2	1389	208.372237698705	144
2	1389	208.372237698705	145
2	1398	210.265930032363	146
2	1398	210.265930032363	147
2	1427	215.085605339337	148
2	1427	215.085605339337	149
2	1436	216.102558831529	150
2	1436	216.102558831529	151
2	1458	219.237531958406	152
2	1458	219.237531958406	153
2	1471	220.594251108384	154
2	1471	220.594251108384	155
2	1486	221.986202695127	156
2	1486	221.986202695127	157
2	1499	223.008682027188	158
2	1499	223.008682027188	159
2	1522	225.007029511229	160
2	1522	225.007029511229	161
2	1534	226.751344899837	162
2	1534	226.751344899837	163
2	1562	234.676149061604	164
2	1562	234.676149061604	165
2	1589	238.901141138266	166
2	1589	238.901141138266	167
3	8	0.160742618959	0
3	8	0.160742618959	1
3	23	1.741140386443	2
3	23	1.741140386443	3
3	46	3.093927787957	4
3	46	3.093927787957	5
3	59	4.405684430436	6
3	59	4.405684430436	7
3	71	6.099716254958	8
3	71	6.099716254958	9
3	80	7.339956632983	10
3	80	7.339956632983	11
3	99	10.603512796836	12
3	99	10.603512796836	13
3	114	11.813632750009	14
3	114	11.813632750009	15
3	145	16.400692923495	16
3	145	16.400692923495	17
3	165	18.38279138041	18
3	165	18.38279138041	19
3	174	19.624712368032	20
3	174	19.624712368032	21
3	188	21.194446459132	22
3	188	21.194446459132	23
3	205	23.564257051067	24
3	205	23.564257051067	25
3	224	26.358032163866	26
3	224	26.358032163866	27
3	239	28.235007134018	28
3	239	28.235007134018	29
3	255	29.479282510549	30
3	255	29.479282510549	31
3	273	32.20383518977	32
3	273	32.20383518977	33
3	312	36.115463898763	34
3	312	36.115463898763	35
3	338	40.850534211643	36
3	338	40.850534211643	37
3	358	41.875303351366	38
3	358	41.875303351366	39
3	370	43.64344691265	40
3	370	43.64344691265	41
3	392	49.057705227163	42
3	392	49.057705227163	43
3	404	52.05738463989	44
3	404	52.05738463989	45
3	417	54.964010344615	46
3	417	54.964010344615	47
3	435	57.857033819253	48
3	435	57.857033819253	49
3	454	59.112270609032	50
3	454	59.112270609032	51
3	469	61.807932196566	52
3	469	61.807932196566	53
3	485	63.77770795428	54
3	485	63.77770795428	55
3	494	65.587651614661	56
3	494	65.587651614661	57
3	503	67.310655626918	58
3	503	67.310655626918	59
3	535	74.220456253146	60
3	535	74.220456253146	61
3	554	75.854221693127	62
3	554	75.854221693127	63
3	563	77.573971888741	64
3	563	77.573971888741	65
3	586	79.312609995364	66
3	586	79.312609995364	67
3	600	84.383934618409	68
3	600	84.383934618409	69
3	624	90.790839644816	70
3	624	90.790839644816	71
3	633	92.750934043451	72
3	633	92.750934043451	73
3	651	96.010978470063	74
3	651	96.010978470063	75
3	667	97.487515506828	76
3	667	97.487515506828	77
3	694	103.232313702792	78
3	694	103.232313702792	79
3	716	104.967740568981	80
3	716	104.967740568981	81
3	736	109.020218675554	82
3	736	109.020218675554	83
3	758	112.140005679727	84
3	758	112.140005679727	85
3	791	119.301418422953	86
3	791	119.301418422953	87
3	804	121.000152014813	88
3	804	121.000152014813	89
3	824	122.213810151883	90
3	824	122.213810151883	91
3	843	130.52498406004	92
3	843	130.52498406004	93
3	868	135.154024928985	94
3	868	135.154024928985	95
3	883	136.845411286945	96
3	883	136.845411286945	97
3	902	138.639621668349	98
3	902	138.639621668349	99
3	916	141.27133395961	100
3	916	141.27133395961	101
3	930	142.733563953273	102
3	930	142.733563953273	103
3	952	144.179291221153	104
3	952	144.179291221153	105
3	961	145.852603955259	106
3	961	145.852603955259	107
3	1005	151.432905734231	108
3	1005	151.432905734231	109
3	1014	152.858021725461	110
3	1014	152.858021725461	111
3	1023	154.190179606676	112
3	1023	154.190179606676	113
3	1039	155.525156156509	114
3	1039	155.525156156509	115
3	1048	157.174810632179	116
3	1048	157.174810632179	117
3	1066	159.863864199867	118
3	1066	159.863864199867	119
3	1077	162.58935870915	120
3	1077	162.58935870915	121
3	1093	163.710756845495	122
3	1093	163.710756845495	123
3	1112	165.567129708429	124
3	1112	165.567129708429	125
3	1129	167.093876556062	126
3	1129	167.093876556062	127
3	1150	170.624488631267	128
3	1150	170.624488631267	129
3	1183	179.462538684903	130
3	1183	179.462538684903	131
3	1212	182.524145651158	132
3	1212	182.524145651158	133
3	1222	183.58461006894	134
3	1222	183.58461006894	135
3	1237	185.485804796362	136
3	1237	185.485804796362	137
3	1253	187.13857287465	138
3	1253	187.13857287465	139
3	1272	192.318479915096	140
3	1272	192.318479915096	141
3	1281	193.866376350703	142
3	1281	193.866376350703	143
3	1297	195.425274957553	144
3	1297	195.425274957553	145
3	1318	199.843498318959	146
3	1318	199.843498318959	147
3	1331	201.311633917122	148
3	1331	201.311633917122	149
3	1355	203.884137570738	150
3	1355	203.884137570738	151
3	1364	205.271737559279	152
3	1364	205.271737559279	153
3	1382	208.317129460631	154
3	1382	208.317129460631	155
3	1399	210.267907646463	156
3	1399	210.267907646463	157
3	1420	215.035296381065	158
3	1420	215.035296381065	159
3	1437	216.105419662919	160
3	1437	216.105419662919	161
3	1454	219.214651200528	162
3	1454	219.214651200528	163
3	1470	220.589272408628	164
3	1470	220.589272408628	165
3	1500	223.012194869989	166
3	1500	223.012194869989	167
3	1515	224.972879623529	168
3	1515	224.972879623529	169
3	1531	226.732207010252	170
3	1531	226.732207010252	171
3	1553	232.924219332723	172
3	1553	232.924219332723	173
3	1569	234.70995005295	174
3	1569	234.70995005295	175
3	1582	238.816512161572	176
3	1582	238.816512161572	177
4	13	0.173232374063	0
4	13	0.173232374063	1
4	13	0.173232374063	2
4	29	1.769224079086	3
4	29	1.769224079086	4
4	29	1.769224079086	5
4	42	3.077738493361	6
4	42	3.077738493361	7
4	42	3.077738493361	8
4	58	4.400535445594	9
4	58	4.400535445594	10
4	58	4.400535445594	11
4	86	7.361917710978	12
4	86	7.361917710978	13
4	86	7.361917710978	14
4	104	10.658057765298	15
4	104	10.658057765298	16
4	104	10.658057765298	17
4	117	11.830070560025	18
4	117	11.830070560025	19
4	117	11.830070560025	20
4	133	13.028255122654	21
4	133	13.028255122654	22
4	133	13.028255122654	23
4	148	16.424135376217	24
4	148	16.424135376217	25
4	148	16.424135376217	26
4	161	18.347752262579	27
4	161	18.347752262579	28
4	161	18.347752262579	29
4	177	19.635580072855	30
4	177	19.635580072855	31
4	177	19.635580072855	32
4	193	21.21249443313	33
4	193	21.21249443313	34
4	193	21.21249443313	35
4	208	23.577117260792	36
4	208	23.577117260792	37
4	208	23.577117260792	38
4	229	26.373339388832	39
4	229	26.373339388832	40
4	229	26.373339388832	41
4	245	28.252625811731	42
4	245	28.252625811731	43
4	245	28.252625811731	44
4	261	29.510316232442	45
4	261	29.510316232442	46
4	261	29.510316232442	47
4	276	32.224393685857	48
4	276	32.224393685857	49
4	276	32.224393685857	50
4	292	33.343432991523	51
4	292	33.343432991523	52
4	292	33.343432991523	53
4	315	36.124599711012	54
4	315	36.124599711012	55
4	315	36.124599711012	56
4	341	40.867258816811	57
4	341	40.867258816811	58
4	341	40.867258816811	59
4	357	41.866152863705	60
4	357	41.866152863705	61
4	357	41.866152863705	62
4	376	43.662360698419	63
4	376	43.662360698419	64
4	376	43.662360698419	65
4	421	54.980349644809	66
4	421	54.980349644809	67
4	421	54.980349644809	68
4	441	57.874367495985	69
4	441	57.874367495985	70
4	441	57.874367495985	71
4	457	59.124877010326	72
4	457	59.124877010326	73
4	457	59.124877010326	74
4	472	61.822618961326	75
4	472	61.822618961326	76
4	472	61.822618961326	77
4	506	67.334465257875	78
4	506	67.334465257875	79
4	506	67.334465257875	80
4	534	74.220391486764	81
4	534	74.220391486764	82
4	534	74.220391486764	83
4	550	75.815855291193	84
4	550	75.815855291193	85
4	550	75.815855291193	86
4	566	77.584105141189	87
4	566	77.584105141189	88
4	566	77.584105141189	89
4	582	79.285343661567	90
4	582	79.285343661567	91
4	582	79.285343661567	92
4	603	84.38969035794	93
4	603	84.38969035794	94
4	603	84.38969035794	95
4	639	92.765698829277	96
4	639	92.765698829277	97
4	639	92.765698829277	98
4	657	96.040126892639	99
4	657	96.040126892639	100
4	657	96.040126892639	101
4	670	97.512539634765	102
4	670	97.512539634765	103
4	670	97.512539634765	104
4	699	103.24401680583	105
4	699	103.24401680583	106
4	699	103.24401680583	107
4	712	104.956361036662	108
4	712	104.956361036662	109
4	712	104.956361036662	110
4	742	109.042245813392	111
4	742	109.042245813392	112
4	742	109.042245813392	113
4	761	112.15611625534	114
4	761	112.15611625534	115
4	761	112.15611625534	116
4	794	119.31582997106	117
4	794	119.31582997106	118
4	794	119.31582997106	119
4	807	121.011188723179	120
4	807	121.011188723179	121
4	807	121.011188723179	122
4	820	122.19821006815	123
4	820	122.19821006815	124
4	820	122.19821006815	125
4	846	130.536762827619	126
4	846	130.536762827619	127
4	846	130.536762827619	128
4	873	135.167231917985	129
4	873	135.167231917985	130
4	873	135.167231917985	131
4	898	138.626103994495	132
4	898	138.626103994495	133
4	898	138.626103994495	134
4	917	141.271439199964	135
4	917	141.271439199964	136
4	917	141.271439199964	137
4	935	142.746247255414	138
4	935	142.746247255414	139
4	935	142.746247255414	140
4	948	144.155397636084	141
4	948	144.155397636084	142
4	948	144.155397636084	143
4	967	145.877243039294	144
4	967	145.877243039294	145
4	967	145.877243039294	146
4	980	147.017075195182	147
4	980	147.017075195182	148
4	980	147.017075195182	149
4	1001	151.40038080553	150
4	1001	151.40038080553	151
4	1001	151.40038080553	152
4	1027	154.207731724854	153
4	1027	154.207731724854	154
4	1027	154.207731724854	155
4	1051	157.185058964256	156
4	1051	157.185058964256	157
4	1051	157.185058964256	158
4	1083	162.624011806607	159
4	1083	162.624011806607	160
4	1083	162.624011806607	161
4	1099	163.731215098423	162
4	1099	163.731215098423	163
4	1099	163.731215098423	164
4	1115	165.584875845793	165
4	1115	165.584875845793	166
4	1115	165.584875845793	167
4	1128	167.089772471564	168
4	1128	167.089772471564	169
4	1128	167.089772471564	170
4	1156	170.656230960338	171
4	1156	170.656230960338	172
4	1156	170.656230960338	173
4	1186	179.480066381423	174
4	1186	179.480066381423	175
4	1186	179.480066381423	176
4	1202	180.971921376848	177
4	1202	180.971921376848	178
4	1202	180.971921376848	179
4	1227	183.601613476654	180
4	1227	183.601613476654	181
4	1227	183.601613476654	182
4	1240	185.500141791066	183
4	1240	185.500141791066	184
4	1240	185.500141791066	185
4	1284	193.91737569363	186
4	1284	193.91737569363	187
4	1284	193.91737569363	188
4	1336	201.334143403729	189
4	1336	201.334143403729	190
4	1336	201.334143403729	191
4	1351	203.870220725339	192
4	1351	203.870220725339	193
4	1351	203.870220725339	194
4	1367	205.286840150783	195
4	1367	205.286840150783	196
4	1367	205.286840150783	197
4	1385	208.354810461208	198
4	1385	208.354810461208	199
4	1385	208.354810461208	200
4	1404	210.278451429127	201
4	1404	210.278451429127	202
4	1404	210.278451429127	203
4	1423	215.069509747529	204
4	1423	215.069509747529	205
4	1423	215.069509747529	206
4	1442	216.126462724801	207
4	1442	216.126462724801	208
4	1442	216.126462724801	209
4	1457	219.229185334711	210
4	1457	219.229185334711	211
4	1457	219.229185334711	212
4	1476	220.605499716962	213
4	1476	220.605499716962	214
4	1476	220.605499716962	215
4	1489	221.998067191469	216
4	1489	221.998067191469	217
4	1489	221.998067191469	218
4	1505	223.024048248018	219
4	1505	223.024048248018	220
4	1505	223.024048248018	221
4	1518	224.9867103042	222
4	1518	224.9867103042	223
4	1518	224.9867103042	224
4	1537	226.764777881668	225
4	1537	226.764777881668	226
4	1537	226.764777881668	227
4	1565	234.686971687259	228
4	1565	234.686971687259	229
4	1565	234.686971687259	230
4	1585	238.853892394525	231
4	1585	238.853892394525	232
4	1585	238.853892394525	233
5	16	0.183232374063	0
5	45	3.087738493361	1
5	62	4.410535445594	2
5	89	7.371917710978	3
5	107	10.668057765298	4
5	120	11.840070560025	5
5	136	13.038255122654	6
5	151	16.434135376217	7
5	180	19.645580072855	8
5	196	21.22249443313	9
5	211	23.587117260792	10
5	232	26.383339388832	11
5	248	28.262625811731	12
5	279	32.234393685857	13
5	295	33.353432991523	14
5	320	36.134599711012	15
5	361	41.876152863705	16
5	379	43.672360698419	17
5	538	74.230391486764	18
5	553	75.825855291193	19
5	608	84.39969035794	20
5	715	104.966361036662	21
5	765	112.16611625534	22
5	797	119.32582997106	23
5	810	121.021188723179	24
5	849	130.546762827619	25
5	876	135.177231917985	26
5	901	138.636103994495	27
5	922	141.281439199964	28
5	951	144.165397636084	29
5	970	145.887243039294	30
5	1054	157.195058964256	31
5	1086	162.634011806607	32
5	1118	165.594875845793	33
5	1132	167.099772471564	34
5	1159	170.666230960338	35
5	1189	179.490066381423	36
5	1230	183.611613476654	37
5	1243	185.510141791066	38
5	1287	193.92737569363	39
5	1339	201.344143403729	40
5	1354	203.880220725339	41
5	1388	208.364810461208	42
5	1426	215.079509747529	43
5	1445	216.136462724801	44
5	1461	219.239185334711	45
5	1492	222.008067191469	46
5	1521	224.9967103042	47
5	1540	226.774777881668	48
5	1568	234.696971687259	49
5	1588	238.863892394525	50

