version 2
run General-3-20231008-05:36:16-14327
attr configname General
attr datetime 20231008-05:36:16
attr experiment General
attr inifile omnetpp.ini
attr iterationvars ""
attr iterationvarsf ""
attr measurement ""
attr network Reliability
attr processid 14327
attr repetition 3
attr replication #3
attr resultdir results
attr runnumber 3
attr seedset 3
param Reliability.node[*].transmissionTime "uniform(1s, 2s)"
param Reliability.node[*].delayTime "uniform(0.01s, 0.2s)"
param Reliability.node[*].processingTime exponential(0.01s)
param Reliability.node[*].lossProbability 0.3

vector 0 Reliability.node[0] txVector ETV
vector 1 Reliability.node[1] txVector ETV
vector 2 Reliability.node[3] txVector ETV
vector 3 Reliability.node[4] txVector ETV
vector 4 Reliability.node[2] txVector ETV
vector 5 Reliability.node[5] rxVector ETV
0	1	0.114651601831	0
0	14	1.185376482154	1
0	16	2.392619360774	2
0	18	3.444086568733	3
0	34	4.884896407207	4
0	47	6.443750492367	5
0	63	7.898358257324	6
0	79	9.223664434463	7
0	95	10.539431682857	8
0	97	12.350659439177	9
0	113	13.72478416732	10
0	129	15.240878786728	11
0	145	16.762483123526	12
0	151	18.268057181336	13
0	153	20.193789965775	14
0	155	21.471113014802	15
0	157	22.647175130037	16
0	159	24.637476318584	17
0	161	26.330126934986	18
0	177	28.082266965018	19
0	193	29.902047693798	20
0	209	31.185455065755	21
0	218	32.373705913847	22
0	220	34.161324114142	23
0	229	35.646418337546	24
0	235	37.256064052297	25
0	241	39.256039516138	26
0	257	40.532681062887	27
0	259	42.024496611044	28
0	261	43.15415499506	29
0	277	45.014208457968	30
0	279	46.354214383126	31
0	295	48.050964370905	32
0	311	49.145845704781	33
0	327	50.824728746036	34
0	329	52.538333290093	35
0	335	53.776769587839	36
0	337	55.705268434318	37
0	353	57.068344713956	38
0	369	58.862106985481	39
0	375	60.272198320202	40
0	391	61.494574639782	41
0	403	63.297402609907	42
0	409	64.510296945529	43
0	425	66.503220502589	44
0	431	68.120674684713	45
0	433	69.151603881106	46
0	439	70.383702270523	47
0	455	72.325616634054	48
0	471	73.506356963025	49
0	487	75.161490873968	50
0	489	76.745420966599	51
0	491	77.845998679357	52
0	497	79.347922022757	53
0	513	81.186825430323	54
0	529	83.031101062265	55
0	531	84.37143353729	56
0	547	85.562716828496	57
0	563	87.237047203653	58
0	579	88.442686755512	59
0	581	89.982558899861	60
0	597	91.84581050889	61
0	613	93.118343958467	62
0	629	94.53394316912	63
0	631	96.256385371623	64
0	633	97.884410856826	65
0	635	99.293000700952	66
0	651	100.457600249046	67
0	667	102.354761094855	68
0	683	103.847612416673	69
0	699	105.380491251893	70
0	701	107.271914925728	71
0	703	109.127463127323	72
0	705	110.455699480208	73
0	721	111.541943097789	74
0	737	113.430715975421	75
0	753	114.491529633593	76
0	755	116.015014168177	77
0	771	117.755007238429	78
0	787	119.132356712198	79
0	803	120.507418827921	80
0	819	121.596199841074	81
0	828	122.912882633343	82
0	830	124.597184304217	83
0	839	126.12414656144	84
0	841	127.885932799265	85
0	847	129.134622731315	86
0	849	131.058489453349	87
0	862	132.098283606417	88
0	878	133.703494230819	89
0	894	135.680888457059	90
0	910	137.486434792702	91
0	912	138.985240014105	92
0	921	140.055359026718	93
0	937	141.366908363135	94
0	953	142.424150165472	95
0	969	143.672247179387	96
0	971	145.388528458843	97
0	973	146.844458784046	98
0	975	148.241358449519	99
0	977	149.565192541875	100
0	993	151.040149387274	101
0	1009	152.684350870386	102
0	1025	153.960829178173	103
0	1027	155.276505791884	104
0	1033	157.137671776883	105
0	1035	158.319919121287	106
0	1037	160.02951271443	107
0	1039	161.699535049101	108
0	1041	163.137569885071	109
0	1043	164.634637414081	110
0	1059	166.574095298838	111
0	1075	167.855344282067	112
0	1091	168.967106593144	113
0	1107	170.461009210511	114
0	1116	172.405025685043	115
0	1128	174.099550882191	116
0	1130	175.662226942204	117
0	1139	177.338187991245	118
0	1145	178.57507535147	119
0	1161	180.549514212948	120
0	1163	182.188267840841	121
0	1165	184.101165678189	122
0	1171	185.64416334785	123
0	1173	187.101891286973	124
0	1189	189.047352095436	125
0	1191	190.497722186682	126
0	1200	192.33240510111	127
0	1216	193.583497637019	128
0	1232	194.930159373742	129
0	1234	196.220359689624	130
0	1250	197.680002544143	131
0	1266	199.397862691966	132
0	1268	200.543883936781	133
0	1284	201.967722972225	134
0	1286	203.06798998413	135
0	1302	204.397119640441	136
0	1318	206.03939965281	137
0	1334	207.223565390402	138
0	1350	208.865243524149	139
0	1366	209.945175925339	140
0	1372	211.232981291436	141
0	1388	212.950376591249	142
0	1390	214.511665735696	143
0	1406	215.837607300211	144
0	1412	217.260819365572	145
0	1428	219.085715297213	146
0	1444	220.66376286752	147
0	1446	222.232583943125	148
0	1462	223.317535686376	149
0	1464	224.464648632402	150
0	1480	225.630821664421	151
0	1482	227.044725840747	152
0	1498	228.075528127443	153
0	1511	229.729678319603	154
0	1513	231.691048766788	155
0	1529	232.723740111872	156
0	1545	234.598813556203	157
0	1554	236.036219704965	158
0	1556	237.646122725982	159
0	1572	238.810810380684	160
1	3	0.14297423212	0
1	3	0.14297423212	1
1	3	0.14297423212	2
1	20	3.45438988473	3
1	20	3.45438988473	4
1	20	3.45438988473	5
1	36	4.89789736114	6
1	36	4.89789736114	7
1	36	4.89789736114	8
1	49	6.467924844626	9
1	49	6.467924844626	10
1	49	6.467924844626	11
1	65	7.924909369692	12
1	65	7.924909369692	13
1	65	7.924909369692	14
1	81	9.241937395732	15
1	81	9.241937395732	16
1	81	9.241937395732	17
1	99	12.361441218217	18
1	99	12.361441218217	19
1	99	12.361441218217	20
1	115	13.74089674619	21
1	115	13.74089674619	22
1	115	13.74089674619	23
1	131	15.252417286353	24
1	131	15.252417286353	25
1	131	15.252417286353	26
1	147	16.797497145783	27
1	147	16.797497145783	28
1	147	16.797497145783	29
1	163	26.341362367567	30
1	163	26.341362367567	31
1	163	26.341362367567	32
1	179	28.100736588232	33
1	179	28.100736588232	34
1	179	28.100736588232	35
1	195	29.933410644683	36
1	195	29.933410644683	37
1	195	29.933410644683	38
1	211	31.201792181936	39
1	211	31.201792181936	40
1	211	31.201792181936	41
1	222	34.177398936129	42
1	222	34.177398936129	43
1	222	34.177398936129	44
1	231	35.657703689264	45
1	231	35.657703689264	46
1	231	35.657703689264	47
1	237	37.269183086241	48
1	237	37.269183086241	49
1	237	37.269183086241	50
1	243	39.268939584004	51
1	243	39.268939584004	52
1	243	39.268939584004	53
1	263	43.166619089998	54
1	263	43.166619089998	55
1	263	43.166619089998	56
1	281	46.378013837495	57
1	281	46.378013837495	58
1	281	46.378013837495	59
1	297	48.066171430041	60
1	297	48.066171430041	61
1	297	48.066171430041	62
1	313	49.165611517365	63
1	313	49.165611517365	64
1	313	49.165611517365	65
1	331	52.560295508116	66
1	331	52.560295508116	67
1	331	52.560295508116	68
1	339	55.73136568021	69
1	339	55.73136568021	70
1	339	55.73136568021	71
1	355	57.083140064993	72
1	355	57.083140064993	73
1	355	57.083140064993	74
1	371	58.873605643533	75
1	371	58.873605643533	76
1	371	58.873605643533	77
1	377	60.286610471453	78
1	377	60.286610471453	79
1	377	60.286610471453	80
1	393	61.527677869825	81
1	393	61.527677869825	82
1	393	61.527677869825	83
1	405	63.312854477472	84
1	405	63.312854477472	85
1	405	63.312854477472	86
1	411	64.525980332852	87
1	411	64.525980332852	88
1	411	64.525980332852	89
1	427	66.522173772852	90
1	427	66.522173772852	91
1	427	66.522173772852	92
1	435	69.161732256517	93
1	435	69.161732256517	94
1	435	69.161732256517	95
1	441	70.396942521596	96
1	441	70.396942521596	97
1	441	70.396942521596	98
1	457	72.349235750994	99
1	457	72.349235750994	100
1	457	72.349235750994	101
1	473	73.516361752327	102
1	473	73.516361752327	103
1	473	73.516361752327	104
1	493	77.872142994652	105
1	493	77.872142994652	106
1	493	77.872142994652	107
1	499	79.369642765182	108
1	499	79.369642765182	109
1	499	79.369642765182	110
1	515	81.202038857424	111
1	515	81.202038857424	112
1	515	81.202038857424	113
1	533	84.38978943836	114
1	533	84.38978943836	115
1	533	84.38978943836	116
1	549	85.596615486676	117
1	549	85.596615486676	118
1	549	85.596615486676	119
1	565	87.249684046004	120
1	565	87.249684046004	121
1	565	87.249684046004	122
1	583	90.001535404361	123
1	583	90.001535404361	124
1	583	90.001535404361	125
1	599	91.865721787288	126
1	599	91.865721787288	127
1	599	91.865721787288	128
1	615	93.136809244186	129
1	615	93.136809244186	130
1	615	93.136809244186	131
1	637	99.307523525799	132
1	637	99.307523525799	133
1	637	99.307523525799	134
1	653	100.479049955537	135
1	653	100.479049955537	136
1	653	100.479049955537	137
1	669	102.374939633498	138
1	669	102.374939633498	139
1	669	102.374939633498	140
1	685	103.865347431419	141
1	685	103.865347431419	142
1	685	103.865347431419	143
1	707	110.469895312203	144
1	707	110.469895312203	145
1	707	110.469895312203	146
1	723	111.552807308126	147
1	723	111.552807308126	148
1	723	111.552807308126	149
1	739	113.442568453435	150
1	739	113.442568453435	151
1	739	113.442568453435	152
1	757	116.042554595135	153
1	757	116.042554595135	154
1	757	116.042554595135	155
1	773	117.774633003341	156
1	773	117.774633003341	157
1	773	117.774633003341	158
1	789	119.150653755076	159
1	789	119.150653755076	160
1	789	119.150653755076	161
1	805	120.520372010291	162
1	805	120.520372010291	163
1	805	120.520372010291	164
1	821	121.606965235922	165
1	821	121.606965235922	166
1	821	121.606965235922	167
1	832	124.611361856949	168
1	832	124.611361856949	169
1	832	124.611361856949	170
1	843	127.901850250108	171
1	843	127.901850250108	172
1	843	127.901850250108	173
1	851	131.090446539781	174
1	851	131.090446539781	175
1	851	131.090446539781	176
1	864	132.127484846849	177
1	864	132.127484846849	178
1	864	132.127484846849	179
1	880	133.723266264133	180
1	880	133.723266264133	181
1	880	133.723266264133	182
1	896	135.717750561641	183
1	896	135.717750561641	184
1	896	135.717750561641	185
1	914	139.012558624408	186
1	914	139.012558624408	187
1	914	139.012558624408	188
1	923	140.065981620392	189
1	923	140.065981620392	190
1	923	140.065981620392	191
1	939	141.386118400152	192
1	939	141.386118400152	193
1	939	141.386118400152	194
1	955	142.458174389949	195
1	955	142.458174389949	196
1	955	142.458174389949	197
1	979	149.595367222353	198
1	979	149.595367222353	199
1	979	149.595367222353	200
1	995	151.055347304766	201
1	995	151.055347304766	202
1	995	151.055347304766	203
1	1011	152.696006785568	204
1	1011	152.696006785568	205
1	1011	152.696006785568	206
1	1029	155.29962102184	207
1	1029	155.29962102184	208
1	1029	155.29962102184	209
1	1045	164.683331362683	210
1	1045	164.683331362683	211
1	1045	164.683331362683	212
1	1061	166.586666448079	213
1	1061	166.586666448079	214
1	1061	166.586666448079	215
1	1077	167.888339237571	216
1	1077	167.888339237571	217
1	1077	167.888339237571	218
1	1093	168.988616556984	219
1	1093	168.988616556984	220
1	1093	168.988616556984	221
1	1109	170.477295287656	222
1	1109	170.477295287656	223
1	1109	170.477295287656	224
1	1118	172.425903202263	225
1	1118	172.425903202263	226
1	1118	172.425903202263	227
1	1132	175.682256834131	228
1	1132	175.682256834131	229
1	1132	175.682256834131	230
1	1141	177.373874444523	231
1	1141	177.373874444523	232
1	1141	177.373874444523	233
1	1147	178.586551990819	234
1	1147	178.586551990819	235
1	1147	178.586551990819	236
1	1167	184.116553095851	237
1	1167	184.116553095851	238
1	1167	184.116553095851	239
1	1175	187.119283212011	240
1	1175	187.119283212011	241
1	1175	187.119283212011	242
1	1193	190.535345316017	243
1	1193	190.535345316017	244
1	1193	190.535345316017	245
1	1202	192.345120900144	246
1	1202	192.345120900144	247
1	1202	192.345120900144	248
1	1218	193.621945520111	249
1	1218	193.621945520111	250
1	1218	193.621945520111	251
1	1236	196.242915765834	252
1	1236	196.242915765834	253
1	1236	196.242915765834	254
1	1252	197.701526346831	255
1	1252	197.701526346831	256
1	1252	197.701526346831	257
1	1270	200.564951757601	258
1	1270	200.564951757601	259
1	1270	200.564951757601	260
1	1288	203.079331491792	261
1	1288	203.079331491792	262
1	1288	203.079331491792	263
1	1304	204.41289150449	264
1	1304	204.41289150449	265
1	1304	204.41289150449	266
1	1320	206.054644539359	267
1	1320	206.054644539359	268
1	1320	206.054644539359	269
1	1336	207.250060605644	270
1	1336	207.250060605644	271
1	1336	207.250060605644	272
1	1352	208.888898666845	273
1	1352	208.888898666845	274
1	1352	208.888898666845	275
1	1368	209.958451859923	276
1	1368	209.958451859923	277
1	1368	209.958451859923	278
1	1374	211.267000278686	279
1	1374	211.267000278686	280
1	1374	211.267000278686	281
1	1392	214.522346341316	282
1	1392	214.522346341316	283
1	1392	214.522346341316	284
1	1408	215.874547353941	285
1	1408	215.874547353941	286
1	1408	215.874547353941	287
1	1414	217.27100649748	288
1	1414	217.27100649748	289
1	1414	217.27100649748	290
1	1430	219.121798691751	291
1	1430	219.121798691751	292
1	1430	219.121798691751	293
1	1448	222.243397554521	294
1	1448	222.243397554521	295
1	1448	222.243397554521	296
1	1466	224.484345605393	297
1	1466	224.484345605393	298
1	1466	224.484345605393	299
1	1484	227.061990794667	300
1	1484	227.061990794667	301
1	1484	227.061990794667	302
1	1500	228.094727135116	303
1	1500	228.094727135116	304
1	1500	228.094727135116	305
1	1515	231.705304457081	306
1	1515	231.705304457081	307
1	1515	231.705304457081	308
1	1531	232.734415718004	309
1	1531	232.734415718004	310
1	1531	232.734415718004	311
1	1547	234.622050172474	312
1	1547	234.622050172474	313
1	1547	234.622050172474	314
1	1558	237.675410928221	315
1	1558	237.675410928221	316
1	1558	237.675410928221	317
1	1574	238.82493549115	318
1	1574	238.82493549115	319
1	1574	238.82493549115	320
2	7	0.161397929952	0
2	7	0.161397929952	1
2	24	3.466817953521	2
2	24	3.466817953521	3
2	60	6.50670097718	4
2	60	6.50670097718	5
2	69	7.935876868975	6
2	69	7.935876868975	7
2	86	9.255387581084	8
2	86	9.255387581084	9
2	110	12.40050671805	10
2	110	12.40050671805	11
2	119	13.75557440943	12
2	119	13.75557440943	13
2	138	15.29803186653	14
2	138	15.29803186653	15
2	167	26.362317277445	16
2	167	26.362317277445	17
2	186	28.129194723707	18
2	186	28.129194723707	19
2	199	29.945543471692	20
2	199	29.945543471692	21
2	226	34.189349520016	22
2	226	34.189349520016	23
2	247	39.282152393278	24
2	247	39.282152393278	25
2	267	43.178482789889	26
2	267	43.178482789889	27
2	285	46.389733989923	28
2	285	46.389733989923	29
2	302	48.081611510612	30
2	302	48.081611510612	31
2	324	49.21661914564	32
2	324	49.21661914564	33
2	343	55.74464092847	34
2	343	55.74464092847	35
2	366	57.164545789507	36
2	366	57.164545789507	37
2	381	60.298309609103	38
2	381	60.298309609103	39
2	397	61.543580349954	40
2	397	61.543580349954	41
2	416	64.545669673856	42
2	416	64.545669673856	43
2	445	70.410149426184	44
2	445	70.410149426184	45
2	461	72.360676974284	46
2	461	72.360676974284	47
2	484	73.556984790319	48
2	484	73.556984790319	49
2	503	79.387269773024	50
2	503	79.387269773024	51
2	519	81.223308869779	52
2	519	81.223308869779	53
2	537	84.400333736445	54
2	537	84.400333736445	55
2	553	85.61309897716	56
2	553	85.61309897716	57
2	569	87.262563386246	58
2	569	87.262563386246	59
2	587	90.012887158075	60
2	587	90.012887158075	61
2	604	91.885697123571	62
2	604	91.885697123571	63
2	619	93.158824085414	64
2	619	93.158824085414	65
2	641	99.326871732716	66
2	641	99.326871732716	67
2	657	100.503731714224	68
2	657	100.503731714224	69
2	680	102.417995443456	70
2	680	102.417995443456	71
2	690	103.883409086064	72
2	690	103.883409086064	73
2	711	110.480418412639	74
2	711	110.480418412639	75
2	727	111.581852984248	76
2	727	111.581852984248	77
2	750	113.498152537621	78
2	750	113.498152537621	79
2	764	116.076121302273	80
2	764	116.076121302273	81
2	777	117.789949798515	82
2	777	117.789949798515	83
2	794	119.168303205741	84
2	794	119.168303205741	85
2	809	120.538255462394	86
2	809	120.538255462394	87
2	855	131.101438977825	88
2	855	131.101438977825	89
2	868	132.145613169029	90
2	868	132.145613169029	91
2	884	133.745230558935	92
2	884	133.745230558935	93
2	900	135.729536901696	94
2	900	135.729536901696	95
2	928	140.092283952044	96
2	928	140.092283952044	97
2	943	141.398520283339	98
2	943	141.398520283339	99
2	960	142.475317543186	100
2	960	142.475317543186	101
2	990	149.657275979609	102
2	990	149.657275979609	103
2	999	151.066464925914	104
2	999	151.066464925914	105
2	1015	152.706581870715	106
2	1015	152.706581870715	107
2	1049	164.704109580125	108
2	1049	164.704109580125	109
2	1065	166.60017033802	110
2	1065	166.60017033802	111
2	1088	167.941559895439	112
2	1088	167.941559895439	113
2	1097	169.023667638424	114
2	1097	169.023667638424	115
2	1113	170.491134752342	116
2	1113	170.491134752342	117
2	1122	172.436121596948	118
2	1122	172.436121596948	119
2	1136	175.713047553551	120
2	1136	175.713047553551	121
2	1151	178.605715203584	122
2	1151	178.605715203584	123
2	1180	187.136290380872	124
2	1180	187.136290380872	125
2	1206	192.358175151274	126
2	1206	192.358175151274	127
2	1229	193.694007822761	128
2	1229	193.694007822761	129
2	1240	196.253721388348	130
2	1240	196.253721388348	131
2	1263	197.751242811503	132
2	1263	197.751242811503	133
2	1274	200.589843766905	134
2	1274	200.589843766905	135
2	1292	203.089996158209	136
2	1292	203.089996158209	137
2	1309	204.438161033285	138
2	1309	204.438161033285	139
2	1325	206.084479932268	140
2	1325	206.084479932268	141
2	1347	207.319477234585	142
2	1347	207.319477234585	143
2	1360	208.931319025073	144
2	1360	208.931319025073	145
2	1382	211.302559131259	146
2	1382	211.302559131259	147
2	1396	214.540548193443	148
2	1396	214.540548193443	149
2	1418	217.281145824444	150
2	1418	217.281145824444	151
2	1435	219.14516464092	152
2	1435	219.14516464092	153
2	1452	222.256572080238	154
2	1452	222.256572080238	155
2	1474	224.530044565886	156
2	1474	224.530044565886	157
2	1489	227.072490557779	158
2	1489	227.072490557779	159
2	1519	231.71681441758	160
2	1519	231.71681441758	161
2	1536	232.754432480914	162
2	1536	232.754432480914	163
2	1551	234.633260860868	164
2	1551	234.633260860868	165
2	1569	237.735661337013	166
2	1569	237.735661337013	167
2	1585	238.879916364699	168
2	1585	238.879916364699	169
3	10	0.194059795375	0
3	10	0.194059795375	1
3	10	0.194059795375	2
3	30	3.488095941639	3
3	30	3.488095941639	4
3	30	3.488095941639	5
3	43	4.934778106907	6
3	43	4.934778106907	7
3	43	4.934778106907	8
3	56	6.496492677711	9
3	56	6.496492677711	10
3	56	6.496492677711	11
3	75	7.961348004593	12
3	75	7.961348004593	13
3	75	7.961348004593	14
3	91	9.275676538878	15
3	91	9.275676538878	16
3	91	9.275676538878	17
3	106	12.384602609066	18
3	106	12.384602609066	19
3	106	12.384602609066	20
3	123	13.772293967661	21
3	123	13.772293967661	22
3	123	13.772293967661	23
3	141	15.314618276829	24
3	141	15.314618276829	25
3	141	15.314618276829	26
3	170	26.380104756754	27
3	170	26.380104756754	28
3	170	26.380104756754	29
3	189	28.142097015942	30
3	189	28.142097015942	31
3	189	28.142097015942	32
3	205	29.957810942657	33
3	205	29.957810942657	34
3	205	29.957810942657	35
3	253	39.346063684644	36
3	253	39.346063684644	37
3	253	39.346063684644	38
3	273	43.211148907227	39
3	273	43.211148907227	40
3	273	43.211148907227	41
3	289	46.403411113799	42
3	289	46.403411113799	43
3	289	46.403411113799	44
3	307	48.108348355402	45
3	307	48.108348355402	46
3	307	48.108348355402	47
3	320	49.205499526125	48
3	320	49.205499526125	49
3	320	49.205499526125	50
3	349	55.760503385219	51
3	349	55.760503385219	52
3	349	55.760503385219	53
3	362	57.119668699728	54
3	362	57.119668699728	55
3	362	57.119668699728	56
3	387	60.31557221854	57
3	387	60.31557221854	58
3	387	60.31557221854	59
3	421	64.560791580993	60
3	421	64.560791580993	61
3	421	64.560791580993	62
3	448	70.428780797734	63
3	448	70.428780797734	64
3	448	70.428780797734	65
3	467	72.39262193221	66
3	467	72.39262193221	67
3	467	72.39262193221	68
3	480	73.546303394921	69
3	480	73.546303394921	70
3	480	73.546303394921	71
3	506	79.407284332154	72
3	506	79.407284332154	73
3	506	79.407284332154	74
3	525	81.245874840306	75
3	525	81.245874840306	76
3	525	81.245874840306	77
3	540	84.413236327695	78
3	540	84.413236327695	79
3	540	84.413236327695	80
3	557	85.628746837395	81
3	557	85.628746837395	82
3	557	85.628746837395	83
3	575	87.309429643553	84
3	575	87.309429643553	85
3	575	87.309429643553	86
3	593	90.044830924116	87
3	593	90.044830924116	88
3	593	90.044830924116	89
3	607	91.895066202776	90
3	607	91.895066202776	91
3	607	91.895066202776	92
3	622	93.169761644246	93
3	622	93.169761644246	94
3	622	93.169761644246	95
3	644	99.359077599786	96
3	644	99.359077599786	97
3	644	99.359077599786	98
3	663	100.527658320287	99
3	663	100.527658320287	100
3	663	100.527658320287	101
3	676	102.403860787652	102
3	676	102.403860787652	103
3	676	102.403860787652	104
3	693	103.886231672404	105
3	693	103.886231672404	106
3	693	103.886231672404	107
3	714	110.4904855799	108
3	714	110.4904855799	109
3	714	110.4904855799	110
3	730	111.601511136747	111
3	730	111.601511136747	112
3	730	111.601511136747	113
3	746	113.482612518938	114
3	746	113.482612518938	115
3	746	113.482612518938	116
3	767	116.087208128238	117
3	767	116.087208128238	118
3	767	116.087208128238	119
3	781	117.801645819616	120
3	781	117.801645819616	121
3	781	117.801645819616	122
3	799	119.185486288404	123
3	799	119.185486288404	124
3	799	119.185486288404	125
3	812	120.568931153542	126
3	812	120.568931153542	127
3	812	120.568931153542	128
3	858	131.113396267596	129
3	858	131.113396267596	130
3	858	131.113396267596	131
3	871	132.161549399066	132
3	871	132.161549399066	133
3	871	132.161549399066	134
3	887	133.766054970411	135
3	887	133.766054970411	136
3	887	133.766054970411	137
3	906	135.745488566492	138
3	906	135.745488566492	139
3	906	135.745488566492	140
3	933	140.105816352493	141
3	933	140.105816352493	142
3	933	140.105816352493	143
3	947	141.41165724685	144
3	947	141.41165724685	145
3	947	141.41165724685	146
3	965	142.495668766027	147
3	965	142.495668766027	148
3	965	142.495668766027	149
3	986	149.644142879	150
3	986	149.644142879	151
3	986	149.644142879	152
3	1003	151.084269184477	153
3	1003	151.084269184477	154
3	1003	151.084269184477	155
3	1019	152.722148796744	156
3	1019	152.722148796744	157
3	1019	152.722148796744	158
3	1055	164.720832484717	159
3	1055	164.720832484717	160
3	1055	164.720832484717	161
3	1071	166.622345094105	162
3	1071	166.622345094105	163
3	1071	166.622345094105	164
3	1084	167.928414853202	165
3	1084	167.928414853202	166
3	1084	167.928414853202	167
3	1100	169.072484683151	168
3	1100	169.072484683151	169
3	1100	169.072484683151	170
3	1155	178.621887711788	171
3	1155	178.621887711788	172
3	1155	178.621887711788	173
3	1185	187.152035691883	174
3	1185	187.152035691883	175
3	1185	187.152035691883	176
3	1209	192.377567018207	177
3	1209	192.377567018207	178
3	1209	192.377567018207	179
3	1225	193.666703883611	180
3	1225	193.666703883611	181
3	1225	193.666703883611	182
3	1243	196.267642825684	183
3	1243	196.267642825684	184
3	1243	196.267642825684	185
3	1259	197.732919528018	186
3	1259	197.732919528018	187
3	1259	197.732919528018	188
3	1277	200.604396972041	189
3	1277	200.604396972041	190
3	1277	200.604396972041	191
3	1298	203.112958767056	192
3	1298	203.112958767056	193
3	1298	203.112958767056	194
3	1314	204.45163617426	195
3	1314	204.45163617426	196
3	1314	204.45163617426	197
3	1330	206.10158614745	198
3	1330	206.10158614745	199
3	1330	206.10158614745	200
3	1343	207.290331401067	201
3	1343	207.290331401067	202
3	1343	207.290331401067	203
3	1359	208.922482567128	204
3	1359	208.922482567128	205
3	1359	208.922482567128	206
3	1381	211.296326226357	207
3	1381	211.296326226357	208
3	1381	211.296326226357	209
3	1400	214.552609745057	210
3	1400	214.552609745057	211
3	1400	214.552609745057	212
3	1421	217.295660859963	213
3	1421	217.295660859963	214
3	1421	217.295660859963	215
3	1440	219.159713792518	216
3	1440	219.159713792518	217
3	1440	219.159713792518	218
3	1456	222.269067217135	219
3	1456	222.269067217135	220
3	1456	222.269067217135	221
3	1473	224.524790347424	222
3	1473	224.524790347424	223
3	1473	224.524790347424	224
3	1494	227.085674261585	225
3	1494	227.085674261585	226
3	1494	227.085674261585	227
3	1507	228.134558961948	228
3	1507	228.134558961948	229
3	1507	228.134558961948	230
3	1525	231.750642059748	231
3	1525	231.750642059748	232
3	1525	231.750642059748	233
3	1541	232.769494743829	234
3	1541	232.769494743829	235
3	1541	232.769494743829	236
3	1565	237.71494924368	237
3	1565	237.71494924368	238
3	1565	237.71494924368	239
3	1581	238.869731097927	240
3	1581	238.869731097927	241
3	1581	238.869731097927	242
4	25	3.470426099892	0
4	25	3.470426099892	1
4	40	4.915944227462	2
4	40	4.915944227462	3
4	53	6.481582917391	4
4	53	6.481582917391	5
4	70	7.939657425821	6
4	70	7.939657425821	7
4	85	9.255074037155	8
4	85	9.255074037155	9
4	103	12.373689902526	10
4	103	12.373689902526	11
4	120	13.762582172716	12
4	120	13.762582172716	13
4	135	15.265196919833	14
4	135	15.265196919833	15
4	174	26.402386749269	16
4	174	26.402386749269	17
4	183	28.117280468446	18
4	183	28.117280468446	19
4	200	29.945596939456	20
4	200	29.945596939456	21
4	215	31.218503558689	22
4	215	31.218503558689	23
4	248	39.285459219847	24
4	248	39.285459219847	25
4	270	43.194787550916	26
4	270	43.194787550916	27
4	288	46.40152629168	28
4	288	46.40152629168	29
4	301	48.07993757005	30
4	301	48.07993757005	31
4	317	49.177904891419	32
4	317	49.177904891419	33
4	344	55.745143980123	34
4	344	55.745143980123	35
4	359	57.095764579157	36
4	359	57.095764579157	37
4	382	60.303883394259	38
4	382	60.303883394259	39
4	400	61.559240355191	40
4	400	61.559240355191	41
4	415	64.544734506057	42
4	415	64.544734506057	43
4	452	70.450647529934	44
4	452	70.450647529934	45
4	462	72.368324018588	46
4	462	72.368324018588	47
4	477	73.52793168233	48
4	477	73.52793168233	49
4	510	79.423552180437	50
4	510	79.423552180437	51
4	520	81.232209437623	52
4	520	81.232209437623	53
4	544	84.446671698005	54
4	544	84.446671698005	55
4	554	85.619907982016	56
4	554	85.619907982016	57
4	572	87.282292675673	58
4	572	87.282292675673	59
4	588	90.019167582942	60
4	588	90.019167582942	61
4	603	91.876600057221	62
4	603	91.876600057221	63
4	626	93.185416668098	64
4	626	93.185416668098	65
4	648	99.374103872836	66
4	648	99.374103872836	67
4	660	100.516791055484	68
4	660	100.516791055484	69
4	673	102.385341204074	70
4	673	102.385341204074	71
4	689	103.875868578067	72
4	689	103.875868578067	73
4	718	110.50546914863	74
4	718	110.50546914863	75
4	734	111.61378149364	76
4	734	111.61378149364	77
4	743	113.463366762801	78
4	743	113.463366762801	79
4	761	116.054208806041	80
4	761	116.054208806041	81
4	778	117.797216658775	82
4	778	117.797216658775	83
4	793	119.163992609453	84
4	793	119.163992609453	85
4	816	120.583437681004	86
4	816	120.583437681004	87
4	825	121.620605273063	88
4	825	121.620605273063	89
4	836	124.632632082337	90
4	836	124.632632082337	91
4	872	132.169565516316	92
4	872	132.169565516316	93
4	891	133.784700561853	94
4	891	133.784700561853	95
4	901	135.734347344214	96
4	901	135.734347344214	97
4	918	139.032957713972	98
4	918	139.032957713972	99
4	927	140.091317991478	100
4	927	140.091317991478	101
4	944	141.406015470089	102
4	944	141.406015470089	103
4	959	142.469548740847	104
4	959	142.469548740847	105
4	983	149.628671848742	106
4	983	149.628671848742	107
4	1002	151.083580151565	108
4	1002	151.083580151565	109
4	1016	152.715584043958	110
4	1016	152.715584043958	111
4	1050	164.707711552719	112
4	1050	164.707711552719	113
4	1066	166.603058477378	114
4	1066	166.603058477378	115
4	1081	167.912704105512	116
4	1081	167.912704105512	117
4	1104	169.083847735502	118
4	1104	169.083847735502	119
4	1123	172.436371118078	120
4	1123	172.436371118078	121
4	1152	178.612398937835	122
4	1152	178.612398937835	123
4	1179	187.135161494844	124
4	1179	187.135161494844	125
4	1197	190.552370082115	126
4	1197	190.552370082115	127
4	1213	192.400082395123	128
4	1213	192.400082395123	129
4	1222	193.638680429927	130
4	1222	193.638680429927	131
4	1247	196.277673419968	132
4	1247	196.277673419968	133
4	1256	197.713185837206	134
4	1256	197.713185837206	135
4	1281	200.626605018886	136
4	1281	200.626605018886	137
4	1293	203.096925982377	138
4	1293	203.096925982377	139
4	1308	204.436843469144	140
4	1308	204.436843469144	141
4	1324	206.075117957703	142
4	1324	206.075117957703	143
4	1340	207.276000416404	144
4	1340	207.276000416404	145
4	1356	208.906617946466	146
4	1356	208.906617946466	147
4	1378	211.281469200524	148
4	1378	211.281469200524	149
4	1399	214.550950026456	150
4	1399	214.550950026456	151
4	1425	217.312400102609	152
4	1425	217.312400102609	153
4	1434	219.142230814342	154
4	1434	219.142230814342	155
4	1453	222.263218387937	156
4	1453	222.263218387937	157
4	1470	224.502198914654	158
4	1470	224.502198914654	159
4	1488	227.072052623206	160
4	1488	227.072052623206	161
4	1504	228.109013262667	162
4	1504	228.109013262667	163
4	1520	231.724114922856	164
4	1520	231.724114922856	165
4	1535	232.752617865489	166
4	1535	232.752617865489	167
4	1562	237.702928161098	168
4	1562	237.702928161098	169
4	1578	238.851303572644	170
4	1578	238.851303572644	171
5	33	3.498095941639	0
5	59	6.506492677711	1
5	109	12.394602609066	2
5	128	13.782293967661	3
5	144	15.324618276829	4
5	192	28.152097015942	5
5	208	29.967810942657	6
5	276	43.221148907227	7
5	294	46.413411113799	8
5	310	48.118348355402	9
5	323	49.215499526125	10
5	352	55.770503385219	11
5	365	57.129668699728	12
5	451	70.438780797734	13
5	470	72.40262193221	14
5	509	79.417284332154	15
5	528	81.255874840306	16
5	543	84.423236327695	17
5	562	85.638746837395	18
5	578	87.319429643553	19
5	596	90.054830924116	20
5	612	91.905066202776	21
5	647	99.369077599786	22
5	679	102.413860787652	23
5	717	110.5004855799	24
5	733	111.611511136747	25
5	749	113.492612518938	26
5	770	116.097208128238	27
5	802	119.195486288404	28
5	815	120.578931153542	29
5	861	131.123396267596	30
5	875	132.171549399066	31
5	909	135.755488566492	32
5	936	140.115816352493	33
5	952	141.42165724685	34
5	968	142.505668766027	35
5	989	149.654142879	36
5	1008	151.094269184477	37
5	1024	152.732148796744	38
5	1074	166.632345094105	39
5	1087	167.938414853202	40
5	1103	169.082484683151	41
5	1188	187.162035691883	42
5	1228	193.676703883611	43
5	1262	197.742919528018	44
5	1280	200.614396972041	45
5	1301	203.122958767056	46
5	1317	204.46163617426	47
5	1333	206.11158614745	48
5	1346	207.300331401067	49
5	1385	211.306326226357	50
5	1405	214.562609745057	51
5	1424	217.305660859963	52
5	1477	224.534790347424	53
5	1497	227.095674261585	54
5	1510	228.144558961948	55
5	1528	231.760642059748	56
5	1544	232.779494743829	57
5	1568	237.72494924368	58

