version 2
run General-2-20231008-05:36:16-14327
attr configname General
attr datetime 20231008-05:36:16
attr experiment General
attr inifile omnetpp.ini
attr iterationvars ""
attr iterationvarsf ""
attr measurement ""
attr network Reliability
attr processid 14327
attr repetition 2
attr replication #2
attr resultdir results
attr runnumber 2
attr seedset 2
param Reliability.node[*].transmissionTime "uniform(1s, 2s)"
param Reliability.node[*].delayTime "uniform(0.01s, 0.2s)"
param Reliability.node[*].processingTime exponential(0.01s)
param Reliability.node[*].lossProbability 0.3

vector 0 Reliability.node[0] txVector ETV
vector 1 Reliability.node[1] txVector ETV
vector 2 Reliability.node[3] txVector ETV
vector 3 Reliability.node[2] txVector ETV
vector 4 Reliability.node[4] txVector ETV
vector 5 Reliability.node[5] rxVector ETV
0	1	0.092839031499	0
0	3	1.277921112972	1
0	19	3.20946197656	2
0	35	4.84219970719	3
0	44	6.249507539692	4
0	46	7.677629870847	5
0	48	8.774160792371	6
0	54	9.901320764115	7
0	70	11.00826644876	8
0	86	12.395159099269	9
0	102	13.736772755645	10
0	118	14.818867676444	11
0	134	16.789447991196	12
0	150	17.835126956245	13
0	152	19.571874017147	14
0	168	20.951084583783	15
0	184	22.448158378964	16
0	190	24.186558133708	17
0	206	25.603311570612	18
0	222	27.35208944885	19
0	238	29.266004925612	20
0	247	30.75527109324	21
0	249	32.219013701212	22
0	251	34.071302661458	23
0	253	35.284070032435	24
0	259	36.284193616612	25
0	261	37.799052783772	26
0	263	39.679043134926	27
0	265	41.463835057821	28
0	267	42.99365623367	29
0	276	44.267494103191	30
0	292	45.316362189613	31
0	294	47.115247703874	32
0	303	48.146495265206	33
0	319	50.081530993124	34
0	335	51.111899245083	35
0	347	52.985026585189	36
0	356	54.170616321284	37
0	372	55.673395068869	38
0	378	57.117966010021	39
0	387	58.14316743358	40
0	389	59.174972310913	41
0	405	60.242707550078	42
0	407	62.023009420856	43
0	423	63.448984170583	44
0	425	65.024763169483	45
0	438	66.443670481694	46
0	440	68.248802021862	47
0	456	70.081963264867	48
0	472	71.962585326302	49
0	474	73.899366400921	50
0	476	75.541818826477	51
0	478	76.928719171573	52
0	480	78.783838839055	53
0	496	80.164631420066	54
0	502	81.954875218467	55
0	504	83.793777816015	56
0	513	85.25551671909	57
0	515	87.229068035277	58
0	517	88.471405538282	59
0	529	89.678024289448	60
0	545	91.014317260374	61
0	561	92.232224581781	62
0	574	93.764609487745	63
0	576	95.387994203967	64
0	578	96.741208099778	65
0	590	97.905986722577	66
0	603	99.166706740409	67
0	605	100.846128153168	68
0	607	102.320021060082	69
0	616	103.894467402269	70
0	632	105.145750318208	71
0	648	106.483118608381	72
0	657	107.840636839412	73
0	663	109.34740867817	74
0	665	111.158181882018	75
0	681	112.928016071927	76
0	683	114.130376738982	77
0	685	116.026781507788	78
0	687	117.841747773831	79
0	703	119.670302937758	80
0	719	121.321796777678	81
0	721	122.607660189524	82
0	737	124.238927586723	83
0	743	126.172997409265	84
0	752	127.893214055124	85
0	754	128.956019495867	86
0	770	130.264628422467	87
0	776	131.426811866716	88
0	792	132.693437759785	89
0	798	134.569377832368	90
0	814	135.910587788114	91
0	816	137.723093371626	92
0	832	139.255934263833	93
0	848	140.628354782725	94
0	864	142.205064444358	95
0	880	143.429065762341	96
0	882	144.97545473722	97
0	898	146.719815628391	98
0	900	148.382450835102	99
0	916	149.44360459924	100
0	932	150.814839697464	101
0	948	152.766133453252	102
0	950	154.336110109484	103
0	952	156.270246858496	104
0	964	157.846401210196	105
0	980	159.482964623507	106
0	996	161.253942593254	107
0	998	162.619603160789	108
0	1014	164.172383120769	109
0	1030	165.945569685913	110
0	1046	167.791677394902	111
0	1048	169.484850653467	112
0	1057	171.132620129521	113
0	1059	172.45557677026	114
0	1068	174.282374250722	115
0	1074	175.385123529025	116
0	1076	176.694520813432	117
0	1078	177.937479905338	118
0	1084	179.891171449349	119
0	1086	181.386433613506	120
0	1102	183.086631359319	121
0	1111	184.514008824034	122
0	1124	185.956011890686	123
0	1126	187.259597689864	124
0	1142	188.537250758168	125
0	1158	190.215194197624	126
0	1167	191.336755798684	127
0	1183	193.211429523324	128
0	1199	194.601320832056	129
0	1215	196.155201480278	130
0	1231	197.627804741982	131
0	1247	199.372680998427	132
0	1263	201.19878647362	133
0	1269	202.308718672275	134
0	1278	203.505069295197	135
0	1294	204.800090092254	136
0	1300	206.389469736741	137
0	1302	207.83148507543	138
0	1315	209.506332677576	139
0	1317	210.516052074052	140
0	1319	211.518114315366	141
0	1335	212.637729656903	142
0	1351	214.525163921082	143
0	1367	216.423994025468	144
0	1383	217.886272933819	145
0	1385	219.579458346377	146
0	1387	220.651957239742	147
0	1393	222.152155227978	148
0	1409	223.521147270007	149
0	1425	225.108998506581	150
0	1427	227.026163171529	151
0	1436	228.173377624731	152
0	1438	229.333590024169	153
0	1454	231.145844109374	154
0	1463	232.219505105651	155
0	1475	233.65456041579	156
0	1491	234.669418947323	157
0	1500	235.95830926068	158
0	1512	237.898978219618	159
0	1524	239.840434703761	160
1	5	1.317434556699	0
1	5	1.317434556699	1
1	5	1.317434556699	2
1	21	3.236511927501	3
1	21	3.236511927501	4
1	21	3.236511927501	5
1	37	4.854147511143	6
1	37	4.854147511143	7
1	37	4.854147511143	8
1	50	8.793242661637	9
1	50	8.793242661637	10
1	50	8.793242661637	11
1	56	9.9138093042	12
1	56	9.9138093042	13
1	56	9.9138093042	14
1	72	11.034047655945	15
1	72	11.034047655945	16
1	72	11.034047655945	17
1	88	12.413532603914	18
1	88	12.413532603914	19
1	88	12.413532603914	20
1	104	13.751335220914	21
1	104	13.751335220914	22
1	104	13.751335220914	23
1	120	14.844974981447	24
1	120	14.844974981447	25
1	120	14.844974981447	26
1	136	16.84028408031	27
1	136	16.84028408031	28
1	136	16.84028408031	29
1	154	19.582005045208	30
1	154	19.582005045208	31
1	154	19.582005045208	32
1	170	20.966444408543	33
1	170	20.966444408543	34
1	170	20.966444408543	35
1	186	22.468873576753	36
1	186	22.468873576753	37
1	186	22.468873576753	38
1	192	24.206881939999	39
1	192	24.206881939999	40
1	192	24.206881939999	41
1	208	25.629335481369	42
1	208	25.629335481369	43
1	208	25.629335481369	44
1	224	27.367532160611	45
1	224	27.367532160611	46
1	224	27.367532160611	47
1	240	29.283943616508	48
1	240	29.283943616508	49
1	240	29.283943616508	50
1	255	35.295045017084	51
1	255	35.295045017084	52
1	255	35.295045017084	53
1	269	43.003923618207	54
1	269	43.003923618207	55
1	269	43.003923618207	56
1	278	44.280135298483	57
1	278	44.280135298483	58
1	278	44.280135298483	59
1	296	47.12785582094	60
1	296	47.12785582094	61
1	296	47.12785582094	62
1	305	48.161447834348	63
1	305	48.161447834348	64
1	305	48.161447834348	65
1	321	50.094682950645	66
1	321	50.094682950645	67
1	321	50.094682950645	68
1	337	51.128536172926	69
1	337	51.128536172926	70
1	337	51.128536172926	71
1	349	52.996443278009	72
1	349	52.996443278009	73
1	349	52.996443278009	74
1	358	54.212023346275	75
1	358	54.212023346275	76
1	358	54.212023346275	77
1	374	55.695973977846	78
1	374	55.695973977846	79
1	374	55.695973977846	80
1	380	57.156175483112	81
1	380	57.156175483112	82
1	380	57.156175483112	83
1	391	59.194865797816	84
1	391	59.194865797816	85
1	391	59.194865797816	86
1	409	62.037257400996	87
1	409	62.037257400996	88
1	409	62.037257400996	89
1	427	65.035473825239	90
1	427	65.035473825239	91
1	427	65.035473825239	92
1	442	68.261106141861	93
1	442	68.261106141861	94
1	442	68.261106141861	95
1	458	70.104681768681	96
1	458	70.104681768681	97
1	458	70.104681768681	98
1	482	78.795802757777	99
1	482	78.795802757777	100
1	482	78.795802757777	101
1	498	80.189000362092	102
1	498	80.189000362092	103
1	498	80.189000362092	104
1	506	83.805122064067	105
1	506	83.805122064067	106
1	506	83.805122064067	107
1	519	88.48692912402	108
1	519	88.48692912402	109
1	519	88.48692912402	110
1	531	89.693236053398	111
1	531	89.693236053398	112
1	531	89.693236053398	113
1	547	91.042333289181	114
1	547	91.042333289181	115
1	547	91.042333289181	116
1	563	92.247379529153	117
1	563	92.247379529153	118
1	563	92.247379529153	119
1	580	96.773572907639	120
1	580	96.773572907639	121
1	580	96.773572907639	122
1	592	97.921139041167	123
1	592	97.921139041167	124
1	592	97.921139041167	125
1	609	102.335404967297	126
1	609	102.335404967297	127
1	609	102.335404967297	128
1	618	103.925773512898	129
1	618	103.925773512898	130
1	618	103.925773512898	131
1	634	105.18611809021	132
1	634	105.18611809021	133
1	634	105.18611809021	134
1	650	106.493213561492	135
1	650	106.493213561492	136
1	650	106.493213561492	137
1	659	107.855635765864	138
1	659	107.855635765864	139
1	659	107.855635765864	140
1	667	111.184064287446	141
1	667	111.184064287446	142
1	667	111.184064287446	143
1	689	117.862314298223	144
1	689	117.862314298223	145
1	689	117.862314298223	146
1	705	119.681356153377	147
1	705	119.681356153377	148
1	705	119.681356153377	149
1	723	122.624183703651	150
1	723	122.624183703651	151
1	723	122.624183703651	152
1	739	124.251563043809	153
1	739	124.251563043809	154
1	739	124.251563043809	155
1	745	126.195411410848	156
1	745	126.195411410848	157
1	745	126.195411410848	158
1	756	128.97850891715	159
1	756	128.97850891715	160
1	756	128.97850891715	161
1	772	130.286477941808	162
1	772	130.286477941808	163
1	772	130.286477941808	164
1	778	131.453066313586	165
1	778	131.453066313586	166
1	778	131.453066313586	167
1	794	132.703627122904	168
1	794	132.703627122904	169
1	794	132.703627122904	170
1	800	134.581866314073	171
1	800	134.581866314073	172
1	800	134.581866314073	173
1	818	137.749509636714	174
1	818	137.749509636714	175
1	818	137.749509636714	176
1	834	139.289961623707	177
1	834	139.289961623707	178
1	834	139.289961623707	179
1	850	140.638636147157	180
1	850	140.638636147157	181
1	850	140.638636147157	182
1	866	142.243397602492	183
1	866	142.243397602492	184
1	866	142.243397602492	185
1	884	144.990049778379	186
1	884	144.990049778379	187
1	884	144.990049778379	188
1	902	148.397115277559	189
1	902	148.397115277559	190
1	902	148.397115277559	191
1	918	149.481805185439	192
1	918	149.481805185439	193
1	918	149.481805185439	194
1	934	150.826523120948	195
1	934	150.826523120948	196
1	934	150.826523120948	197
1	954	156.282294741355	198
1	954	156.282294741355	199
1	954	156.282294741355	200
1	966	157.85844987589	201
1	966	157.85844987589	202
1	966	157.85844987589	203
1	982	159.493897298357	204
1	982	159.493897298357	205
1	982	159.493897298357	206
1	1000	162.632703662448	207
1	1000	162.632703662448	208
1	1000	162.632703662448	209
1	1016	164.184222987654	210
1	1016	164.184222987654	211
1	1016	164.184222987654	212
1	1032	165.961080069095	213
1	1032	165.961080069095	214
1	1032	165.961080069095	215
1	1050	169.495511251326	216
1	1050	169.495511251326	217
1	1050	169.495511251326	218
1	1061	172.481100708309	219
1	1061	172.481100708309	220
1	1061	172.481100708309	221
1	1070	174.298804593834	222
1	1070	174.298804593834	223
1	1070	174.298804593834	224
1	1080	177.952545093277	225
1	1080	177.952545093277	226
1	1080	177.952545093277	227
1	1088	181.413322230373	228
1	1088	181.413322230373	229
1	1088	181.413322230373	230
1	1104	183.097701513207	231
1	1104	183.097701513207	232
1	1104	183.097701513207	233
1	1113	184.54851014385	234
1	1113	184.54851014385	235
1	1113	184.54851014385	236
1	1128	187.271224383987	237
1	1128	187.271224383987	238
1	1128	187.271224383987	239
1	1144	188.550829756111	240
1	1144	188.550829756111	241
1	1144	188.550829756111	242
1	1160	190.2252500766	243
1	1160	190.2252500766	244
1	1160	190.2252500766	245
1	1169	191.349112428725	246
1	1169	191.349112428725	247
1	1169	191.349112428725	248
1	1185	193.222526163907	249
1	1185	193.222526163907	250
1	1185	193.222526163907	251
1	1201	194.6141456264	252
1	1201	194.6141456264	253
1	1201	194.6141456264	254
1	1217	196.184128597422	255
1	1217	196.184128597422	256
1	1217	196.184128597422	257
1	1233	197.639136058239	258
1	1233	197.639136058239	259
1	1233	197.639136058239	260
1	1249	199.389687879504	261
1	1249	199.389687879504	262
1	1249	199.389687879504	263
1	1265	201.215074062659	264
1	1265	201.215074062659	265
1	1265	201.215074062659	266
1	1271	202.331337993873	267
1	1271	202.331337993873	268
1	1271	202.331337993873	269
1	1280	203.518865692047	270
1	1280	203.518865692047	271
1	1280	203.518865692047	272
1	1296	204.82314300641	273
1	1296	204.82314300641	274
1	1296	204.82314300641	275
1	1304	207.847330577783	276
1	1304	207.847330577783	277
1	1304	207.847330577783	278
1	1321	211.562580190524	279
1	1321	211.562580190524	280
1	1321	211.562580190524	281
1	1337	212.6526236387	282
1	1337	212.6526236387	283
1	1337	212.6526236387	284
1	1353	214.535781335135	285
1	1353	214.535781335135	286
1	1353	214.535781335135	287
1	1369	216.453545286712	288
1	1369	216.453545286712	289
1	1369	216.453545286712	290
1	1389	220.662359895848	291
1	1389	220.662359895848	292
1	1389	220.662359895848	293
1	1395	222.18096812016	294
1	1395	222.18096812016	295
1	1395	222.18096812016	296
1	1411	223.53672529871	297
1	1411	223.53672529871	298
1	1411	223.53672529871	299
1	1429	227.038111395869	300
1	1429	227.038111395869	301
1	1429	227.038111395869	302
1	1440	229.344072788777	303
1	1440	229.344072788777	304
1	1440	229.344072788777	305
1	1456	231.180350783433	306
1	1456	231.180350783433	307
1	1456	231.180350783433	308
1	1465	232.238027574985	309
1	1465	232.238027574985	310
1	1465	232.238027574985	311
1	1477	233.670176473413	312
1	1477	233.670176473413	313
1	1477	233.670176473413	314
1	1493	234.695074289926	315
1	1493	234.695074289926	316
1	1493	234.695074289926	317
1	1502	235.973969173516	318
1	1502	235.973969173516	319
1	1502	235.973969173516	320
1	1514	237.91593925086	321
1	1514	237.91593925086	322
1	1514	237.91593925086	323
2	9	1.331444330932	0
2	9	1.331444330932	1
2	26	3.253718717114	2
2	26	3.253718717114	3
2	61	9.92838960213	4
2	61	9.92838960213	5
2	83	11.09137621273	6
2	83	11.09137621273	7
2	92	12.427897137748	8
2	92	12.427897137748	9
2	108	13.763832639554	10
2	108	13.763832639554	11
2	124	14.861533914588	12
2	124	14.861533914588	13
2	144	16.871866469163	14
2	144	16.871866469163	15
2	165	19.646314526409	16
2	165	19.646314526409	17
2	175	20.98640973174	18
2	175	20.98640973174	19
2	203	24.288257372119	20
2	203	24.288257372119	21
2	219	25.684645472415	22
2	219	25.684645472415	23
2	228	27.377940497589	24
2	228	27.377940497589	25
2	289	44.343548006051	26
2	289	44.343548006051	27
2	310	48.172127022442	28
2	310	48.172127022442	29
2	325	50.110370074531	30
2	325	50.110370074531	31
2	342	51.145996026493	32
2	342	51.145996026493	33
2	353	53.011112020198	34
2	353	53.011112020198	35
2	362	54.233328703177	36
2	362	54.233328703177	37
2	384	57.177021623971	38
2	384	57.177021623971	39
2	398	59.229720619876	40
2	398	59.229720619876	41
2	413	62.058576553452	42
2	413	62.058576553452	43
2	431	65.048039486374	44
2	431	65.048039486374	45
2	447	68.285232536877	46
2	447	68.285232536877	47
2	462	70.115094362363	48
2	462	70.115094362363	49
2	489	78.819469175639	50
2	489	78.819469175639	51
2	526	88.509507452643	52
2	526	88.509507452643	53
2	535	89.70461540568	54
2	535	89.70461540568	55
2	551	91.056882128476	56
2	551	91.056882128476	57
2	567	92.260663280429	58
2	567	92.260663280429	59
2	587	96.796556779077	60
2	587	96.796556779077	61
2	613	102.349419552307	62
2	613	102.349419552307	63
2	629	103.965688380109	64
2	629	103.965688380109	65
2	639	105.20831846034	66
2	639	105.20831846034	67
2	654	106.506146897484	68
2	654	106.506146897484	69
2	671	111.203331255257	70
2	671	111.203331255257	71
2	696	117.893541877325	72
2	696	117.893541877325	73
2	709	119.691889044667	74
2	709	119.691889044667	75
2	727	122.637841792884	76
2	727	122.637841792884	77
2	749	126.215671709856	78
2	749	126.215671709856	79
2	763	129.003684686721	80
2	763	129.003684686721	81
2	783	131.477672216893	82
2	783	131.477672216893	83
2	805	134.597994145656	84
2	805	134.597994145656	85
2	822	137.76118277751	86
2	822	137.76118277751	87
2	838	139.30048229252	88
2	838	139.30048229252	89
2	855	140.665492352978	90
2	855	140.665492352978	91
2	870	142.255181966063	92
2	870	142.255181966063	93
2	891	145.019577327136	94
2	891	145.019577327136	95
2	907	148.414554335401	96
2	907	148.414554335401	97
2	922	149.497921974024	98
2	922	149.497921974024	99
2	938	150.840339874684	100
2	938	150.840339874684	101
2	958	156.292425296845	102
2	958	156.292425296845	103
2	970	157.86873910424	104
2	970	157.86873910424	105
2	987	159.513862525693	106
2	987	159.513862525693	107
2	1004	162.646216343381	108
2	1004	162.646216343381	109
2	1020	164.197339591572	110
2	1020	164.197339591572	111
2	1036	165.974731708498	112
2	1036	165.974731708498	113
2	1065	172.491831689374	114
2	1065	172.491831689374	115
2	1092	181.4235560258	116
2	1092	181.4235560258	117
2	1108	183.125791733041	118
2	1108	183.125791733041	119
2	1117	184.561646465181	120
2	1117	184.561646465181	121
2	1139	187.333003034925	122
2	1139	187.333003034925	123
2	1149	188.566782018646	124
2	1149	188.566782018646	125
2	1173	191.367865463836	126
2	1173	191.367865463836	127
2	1190	193.241197616041	128
2	1190	193.241197616041	129
2	1205	194.657744118953	130
2	1205	194.657744118953	131
2	1221	196.20538709281	132
2	1221	196.20538709281	133
2	1244	197.688908663114	134
2	1244	197.688908663114	135
2	1253	199.40189749606	136
2	1253	199.40189749606	137
2	1284	203.555894120332	138
2	1284	203.555894120332	139
2	1326	211.582067268861	140
2	1326	211.582067268861	141
2	1341	212.669746533026	142
2	1341	212.669746533026	143
2	1357	214.548213728789	144
2	1357	214.548213728789	145
2	1374	216.468442928439	146
2	1374	216.468442928439	147
2	1406	222.223091269355	148
2	1406	222.223091269355	149
2	1416	223.549314018893	150
2	1416	223.549314018893	151
2	1433	227.050892250209	152
2	1433	227.050892250209	153
2	1444	229.355219820161	154
2	1444	229.355219820161	155
2	1460	231.206172478231	156
2	1460	231.206172478231	157
2	1472	232.268063088653	158
2	1472	232.268063088653	159
2	1484	233.7053976234	160
2	1484	233.7053976234	161
2	1506	235.991407317526	162
2	1506	235.991407317526	163
2	1519	237.930816178893	164
2	1519	237.930816178893	165
3	10	1.332888171871	0
3	10	1.332888171871	1
3	25	3.247957330242	2
3	25	3.247957330242	3
3	41	4.871184459035	4
3	41	4.871184459035	5
3	60	9.925646409182	6
3	60	9.925646409182	7
3	76	11.045320136819	8
3	76	11.045320136819	9
3	95	12.440096603864	10
3	95	12.440096603864	11
3	109	13.768574153697	12
3	109	13.768574153697	13
3	125	14.867235189021	14
3	125	14.867235189021	15
3	140	16.857570388993	16
3	140	16.857570388993	17
3	158	19.594399467292	18
3	158	19.594399467292	19
3	174	20.98175038055	20
3	174	20.98175038055	21
3	196	24.232307784752	22
3	196	24.232307784752	23
3	212	25.64393375784	24
3	212	25.64393375784	25
3	232	27.402508277405	26
3	232	27.402508277405	27
3	244	29.297193153822	28
3	244	29.297193153822	29
3	273	43.032574220574	30
3	273	43.032574220574	31
3	282	44.291899036475	32
3	282	44.291899036475	33
3	300	47.138040210882	34
3	300	47.138040210882	35
3	309	48.171984191804	36
3	309	48.171984191804	37
3	332	50.170639298273	38
3	332	50.170639298273	39
3	341	51.145621166829	40
3	341	51.145621166829	41
3	363	54.233418540836	42
3	363	54.233418540836	43
3	395	59.213311877494	44
3	395	59.213311877494	45
3	414	62.068177553073	46
3	414	62.068177553073	47
3	446	68.27636891316	48
3	446	68.27636891316	49
3	469	70.158347125577	50
3	469	70.158347125577	51
3	486	78.807820081128	52
3	486	78.807820081128	53
3	510	83.820009174711	54
3	510	83.820009174711	55
3	523	88.497843471916	56
3	523	88.497843471916	57
3	542	89.732030056871	58
3	542	89.732030056871	59
3	558	91.174740330223	60
3	558	91.174740330223	61
3	584	96.786269852107	62
3	584	96.786269852107	63
3	596	97.932682159108	64
3	596	97.932682159108	65
3	622	103.936075855216	66
3	622	103.936075855216	67
3	638	105.198587163913	68
3	638	105.198587163913	69
3	678	111.234927194019	70
3	678	111.234927194019	71
3	693	117.876047124921	72
3	693	117.876047124921	73
3	716	119.718688982766	74
3	716	119.718688982766	75
3	728	122.638229757739	76
3	728	122.638229757739	77
3	760	128.993564082621	78
3	760	128.993564082621	79
3	782	131.473268863508	80
3	782	131.473268863508	81
3	804	134.595019692488	82
3	804	134.595019692488	83
3	829	137.790883572366	84
3	829	137.790883572366	85
3	839	139.30974220929	86
3	839	139.30974220929	87
3	854	140.659645089097	88
3	854	140.659645089097	89
3	871	142.255194043952	90
3	871	142.255194043952	91
3	888	145.001262064786	92
3	888	145.001262064786	93
3	906	148.409893005936	94
3	906	148.409893005936	95
3	923	149.50246470973	96
3	923	149.50246470973	97
3	945	150.865045749929	98
3	945	150.865045749929	99
3	959	156.292537101647	100
3	959	156.292537101647	101
3	971	157.869882869704	102
3	971	157.869882869704	103
3	986	159.506928859558	104
3	986	159.506928859558	105
3	1011	162.702791983615	106
3	1011	162.702791983615	107
3	1023	164.208562066794	108
3	1023	164.208562066794	109
3	1043	165.99981500281	110
3	1043	165.99981500281	111
3	1054	169.514097218835	112
3	1054	169.514097218835	113
3	1093	181.431074877095	114
3	1093	181.431074877095	115
3	1132	187.301194225716	116
3	1132	187.301194225716	117
3	1148	188.563271144598	118
3	1148	188.563271144598	119
3	1164	190.240981424608	120
3	1164	190.240981424608	121
3	1177	191.384536694947	122
3	1177	191.384536694947	123
3	1189	193.236105517142	124
3	1189	193.236105517142	125
3	1212	194.688064619408	126
3	1212	194.688064619408	127
3	1224	196.217025218804	128
3	1224	196.217025218804	129
3	1237	197.651579851302	130
3	1237	197.651579851302	131
3	1260	199.444555040303	132
3	1260	199.444555040303	133
3	1275	202.358871574002	134
3	1275	202.358871574002	135
3	1291	203.600029568096	136
3	1291	203.600029568096	137
3	1308	207.859904351488	138
3	1308	207.859904351488	139
3	1325	211.578915167359	140
3	1325	211.578915167359	141
3	1345	212.686286704843	142
3	1345	212.686286704843	143
3	1364	214.574048897545	144
3	1364	214.574048897545	145
3	1373	216.46633648485	146
3	1373	216.46633648485	147
3	1399	222.191972044547	148
3	1399	222.191972044547	149
3	1415	223.546840974053	150
3	1415	223.546840974053	151
3	1445	229.363734257322	152
3	1445	229.363734257322	153
3	1469	232.251740747512	154
3	1469	232.251740747512	155
3	1481	233.682644072741	156
3	1481	233.682644072741	157
3	1497	234.711047972644	158
3	1497	234.711047972644	159
3	1507	235.993490479174	160
3	1507	235.993490479174	161
3	1518	237.928183480766	162
3	1518	237.928183480766	163
4	15	1.3441659436	0
4	15	1.3441659436	1
4	15	1.3441659436	2
4	31	3.266709492414	3
4	31	3.266709492414	4
4	31	3.266709492414	5
4	66	9.945874226	6
4	66	9.945874226	7
4	66	9.945874226	8
4	79	11.074444573643	9
4	79	11.074444573643	10
4	79	11.074444573643	11
4	96	12.445567317975	12
4	96	12.445567317975	13
4	96	12.445567317975	14
4	112	13.776671894087	15
4	112	13.776671894087	16
4	112	13.776671894087	17
4	128	14.875001489329	18
4	128	14.875001489329	19
4	128	14.875001489329	20
4	143	16.870577991212	21
4	143	16.870577991212	22
4	143	16.870577991212	23
4	161	19.625461453804	24
4	161	19.625461453804	25
4	161	19.625461453804	26
4	178	20.9929469609	27
4	178	20.9929469609	28
4	178	20.9929469609	29
4	199	24.276819197133	30
4	199	24.276819197133	31
4	199	24.276819197133	32
4	215	25.670395354671	33
4	215	25.670395354671	34
4	215	25.670395354671	35
4	231	27.397710548178	36
4	231	27.397710548178	37
4	231	27.397710548178	38
4	285	44.320009539012	39
4	285	44.320009539012	40
4	285	44.320009539012	41
4	315	48.182318699037	42
4	315	48.182318699037	43
4	315	48.182318699037	44
4	328	50.129921808386	45
4	328	50.129921808386	46
4	328	50.129921808386	47
4	368	54.262836690173	48
4	368	54.262836690173	49
4	368	54.262836690173	50
4	401	59.242864195974	51
4	401	59.242864195974	52
4	401	59.242864195974	53
4	419	62.079582511006	54
4	419	62.079582511006	55
4	419	62.079582511006	56
4	434	65.062331967959	57
4	434	65.062331967959	58
4	434	65.062331967959	59
4	452	68.300943312985	60
4	452	68.300943312985	61
4	452	68.300943312985	62
4	465	70.127689977579	63
4	465	70.127689977579	64
4	465	70.127689977579	65
4	492	78.829609606928	66
4	492	78.829609606928	67
4	492	78.829609606928	68
4	538	89.721111233125	69
4	538	89.721111233125	70
4	538	89.721111233125	71
4	554	91.111856139859	72
4	554	91.111856139859	73
4	554	91.111856139859	74
4	570	92.280905900291	75
4	570	92.280905900291	76
4	570	92.280905900291	77
4	599	97.971624549288	78
4	599	97.971624549288	79
4	599	97.971624549288	80
4	625	103.948696591249	81
4	625	103.948696591249	82
4	625	103.948696591249	83
4	642	105.211431382854	84
4	642	105.211431382854	85
4	642	105.211431382854	86
4	674	111.219571428885	87
4	674	111.219571428885	88
4	674	111.219571428885	89
4	699	117.923573651088	90
4	699	117.923573651088	91
4	699	117.923573651088	92
4	712	119.701913899754	93
4	712	119.701913899754	94
4	712	119.701913899754	95
4	731	122.648159816715	96
4	731	122.648159816715	97
4	731	122.648159816715	98
4	766	129.04702947161	99
4	766	129.04702947161	100
4	766	129.04702947161	101
4	786	131.486353746762	102
4	786	131.486353746762	103
4	786	131.486353746762	104
4	810	134.608597205809	105
4	810	134.608597205809	106
4	810	134.608597205809	107
4	825	137.778889688718	108
4	825	137.778889688718	109
4	825	137.778889688718	110
4	844	139.334788611155	111
4	844	139.334788611155	112
4	844	139.334788611155	113
4	860	140.70273392435	114
4	860	140.70273392435	115
4	860	140.70273392435	116
4	876	142.273323115317	117
4	876	142.273323115317	118
4	876	142.273323115317	119
4	894	145.036039748286	120
4	894	145.036039748286	121
4	894	145.036039748286	122
4	912	148.426249705897	123
4	912	148.426249705897	124
4	912	148.426249705897	125
4	928	149.529065364802	126
4	928	149.529065364802	127
4	928	149.529065364802	128
4	941	150.851399998463	129
4	941	150.851399998463	130
4	941	150.851399998463	131
4	976	157.886536544581	132
4	976	157.886536544581	133
4	976	157.886536544581	134
4	990	159.521833193365	135
4	990	159.521833193365	136
4	990	159.521833193365	137
4	1007	162.681886661103	138
4	1007	162.681886661103	139
4	1007	162.681886661103	140
4	1024	164.209533849473	141
4	1024	164.209533849473	142
4	1024	164.209533849473	143
4	1039	165.985159593502	144
4	1039	165.985159593502	145
4	1039	165.985159593502	146
4	1098	181.447226966654	147
4	1098	181.447226966654	148
4	1098	181.447226966654	149
4	1120	184.573644660127	150
4	1120	184.573644660127	151
4	1120	184.573644660127	152
4	1135	187.313197740109	153
4	1135	187.313197740109	154
4	1135	187.313197740109	155
4	1154	188.587662252949	156
4	1154	188.587662252949	157
4	1154	188.587662252949	158
4	1176	191.383096902732	159
4	1176	191.383096902732	160
4	1176	191.383096902732	161
4	1195	193.257076183899	162
4	1195	193.257076183899	163
4	1195	193.257076183899	164
4	1208	194.673275123724	165
4	1208	194.673275123724	166
4	1208	194.673275123724	167
4	1225	196.225131426158	168
4	1225	196.225131426158	169
4	1225	196.225131426158	170
4	1240	197.669125905126	171
4	1240	197.669125905126	172
4	1240	197.669125905126	173
4	1256	199.412288577352	174
4	1256	199.412288577352	175
4	1256	199.412288577352	176
4	1287	203.577662238236	177
4	1287	203.577662238236	178
4	1287	203.577662238236	179
4	1311	207.879631860347	180
4	1311	207.879631860347	181
4	1311	207.879631860347	182
4	1331	211.603404245951	183
4	1331	211.603404245951	184
4	1331	211.603404245951	185
4	1344	212.680066051794	186
4	1344	212.680066051794	187
4	1344	212.680066051794	188
4	1360	214.56373419969	189
4	1360	214.56373419969	190
4	1360	214.56373419969	191
4	1379	216.480057806662	192
4	1379	216.480057806662	193
4	1379	216.480057806662	194
4	1402	222.204292457866	195
4	1402	222.204292457866	196
4	1402	222.204292457866	197
4	1421	223.567660321778	198
4	1421	223.567660321778	199
4	1421	223.567660321778	200
4	1450	229.379487592445	201
4	1450	229.379487592445	202
4	1450	229.379487592445	203
4	1485	233.705403151534	204
4	1485	233.705403151534	205
4	1485	233.705403151534	206
5	34	3.276709492414	0
5	69	9.955874226	1
5	101	12.455567317975	2
5	117	13.786671894087	3
5	133	14.885001489329	4
5	147	16.880577991212	5
5	164	19.635461453804	6
5	183	21.0029469609	7
5	202	24.286819197133	8
5	218	25.680395354671	9
5	235	27.407710548178	10
5	331	50.139921808386	11
5	422	62.089582511006	12
5	455	68.310943312985	13
5	541	89.731111233125	14
5	557	91.121856139859	15
5	602	97.981624549288	16
5	628	103.958696591249	17
5	647	105.221431382854	18
5	702	117.933573651088	19
5	715	119.711913899754	20
5	736	122.658159816715	21
5	769	129.05702947161	22
5	863	140.71273392435	23
5	879	142.283323115317	24
5	915	148.436249705897	25
5	931	149.539065364802	26
5	979	157.896536544581	27
5	995	159.531833193365	28
5	1010	162.691886661103	29
5	1029	164.219533849473	30
5	1123	184.583644660127	31
5	1138	187.323197740109	32
5	1157	188.597662252949	33
5	1180	191.393096902732	34
5	1259	199.422288577352	35
5	1290	203.587662238236	36
5	1314	207.889631860347	37
5	1334	211.613404245951	38
5	1363	214.57373419969	39
5	1382	216.490057806662	40
5	1424	223.577660321778	41
5	1453	229.389487592445	42
5	1490	233.715403151534	43

