version 2
run General-1-20231008-05:36:16-14327
attr configname General
attr datetime 20231008-05:36:16
attr experiment General
attr inifile omnetpp.ini
attr iterationvars ""
attr iterationvarsf ""
attr measurement ""
attr network Reliability
attr processid 14327
attr repetition 1
attr replication #1
attr resultdir results
attr runnumber 1
attr seedset 1
param Reliability.node[*].transmissionTime "uniform(1s, 2s)"
param Reliability.node[*].delayTime "uniform(0.01s, 0.2s)"
param Reliability.node[*].processingTime exponential(0.01s)
param Reliability.node[*].lossProbability 0.3

vector 0 Reliability.node[0] txVector ETV
vector 1 Reliability.node[1] txVector ETV
vector 2 Reliability.node[3] txVector ETV
vector 3 Reliability.node[2] txVector ETV
vector 4 Reliability.node[4] txVector ETV
vector 5 Reliability.node[5] rxVector ETV
0	1	0.089234179703	0
0	10	2.086418987836	1
0	26	3.178757583375	2
0	28	5.056875020384	3
0	44	6.084262616352	4
0	46	7.397686801038	5
0	55	9.090009417969	6
0	57	10.363059395344	7
0	73	11.422302592431	8
0	86	13.205617064961	9
0	88	14.994896397113	10
0	90	16.098122409198	11
0	99	17.54601593374	12
0	101	19.070815316753	13
0	117	20.154438322063	14
0	133	21.41541730345	15
0	149	22.555383423695	16
0	151	24.093808118373	17
0	167	25.746106996553	18
0	169	27.509340053776	19
0	182	28.865871770659	20
0	184	30.815361030519	21
0	200	32.26527316368	22
0	216	33.591918065798	23
0	232	35.282814985028	24
0	234	37.036691178222	25
0	236	38.959715718989	26
0	245	40.671240475847	27
0	247	42.181050754039	28
0	256	43.283185986456	29
0	258	44.407359303561	30
0	260	45.686542984218	31
0	276	47.272302252127	32
0	285	49.13584410481	33
0	287	50.28918258881	34
0	289	52.226372914741	35
0	291	54.142782787912	36
0	293	55.924741250582	37
0	302	57.541070193404	38
0	308	59.508346523044	39
0	310	60.76067226974	40
0	312	62.504498127035	41
0	324	63.699927607204	42
0	333	65.319883319202	43
0	349	66.359566821137	44
0	365	67.575217096487	45
0	367	68.737422607725	46
0	369	70.093886289631	47
0	385	71.18919410126	48
0	401	72.711930726075	49
0	410	74.637130834048	50
0	412	76.123121504092	51
0	414	77.727431993584	52
0	430	79.276979912889	53
0	432	80.782642082662	54
0	441	81.804166890799	55
0	457	82.909558141024	56
0	473	83.933442233947	57
0	482	85.886273358368	58
0	488	87.779162062916	59
0	494	89.567091297011	60
0	496	90.987284977573	61
0	512	92.666353814888	62
0	528	94.241065322773	63
0	530	96.105544756052	64
0	532	97.428225756741	65
0	548	99.099014547772	66
0	554	101.072816629081	67
0	556	102.499517640916	68
0	558	103.842863880449	69
0	560	105.640502687429	70
0	569	107.520500974382	71
0	578	108.819301198355	72
0	580	110.552443729832	73
0	596	112.071455358646	74
0	598	114.054272475305	75
0	600	115.235885331525	76
0	616	117.047744024663	77
0	632	118.640255888344	78
0	634	120.368841559977	79
0	650	121.577035999044	80
0	652	123.054176984473	81
0	654	124.206848633827	82
0	667	125.828654861429	83
0	683	127.727718861194	84
0	699	128.927990266939	85
0	715	130.513349480114	86
0	731	132.128614413205	87
0	747	133.331672256931	88
0	749	135.249170553989	89
0	765	136.563317079448	90
0	767	138.050059792005	91
0	769	139.325905691717	92
0	771	140.551296167659	93
0	777	142.198050081848	94
0	793	144.077903186555	95
0	806	145.580899719034	96
0	808	147.29028697184	97
0	817	148.755288454124	98
0	833	150.212266361459	99
0	846	151.489671827179	100
0	862	152.556396820468	101
0	878	154.006483565669	102
0	887	155.13212494238	103
0	899	156.412809733885	104
0	901	158.028113965762	105
0	917	159.865917833408	106
0	919	161.504976807514	107
0	921	162.994676416859	108
0	937	164.884051165197	109
0	946	166.385687394652	110
0	948	167.897980092212	111
0	964	169.83686657029	112
0	980	171.395383117607	113
0	996	172.912650715912	114
0	1009	174.83285723103	115
0	1015	175.934864875747	116
0	1027	177.374269312367	117
0	1043	178.425910547262	118
0	1055	179.581903043555	119
0	1071	180.650334103851	120
0	1087	182.275141183406	121
0	1089	183.888695356788	122
0	1091	185.208666794354	123
0	1107	186.32056655281	124
0	1109	188.190779212283	125
0	1121	189.330410467114	126
0	1137	191.193322189038	127
0	1139	193.00102122233	128
0	1155	194.105689832128	129
0	1164	195.911301154529	130
0	1166	197.658621966957	131
0	1182	198.948224712747	132
0	1184	200.681469784469	133
0	1186	202.425942937496	134
0	1188	203.647339637044	135
0	1197	204.861451777049	136
0	1199	206.04620719806	137
0	1215	207.966904542527	138
0	1231	209.036389063696	139
0	1233	210.809223496007	140
0	1235	212.216354137404	141
0	1251	214.151308764123	142
0	1267	216.032737262199	143
0	1283	217.958163431265	144
0	1295	219.850627283218	145
0	1311	221.697971315241	146
0	1327	223.678730086774	147
0	1329	225.128045683379	148
0	1345	226.675637132839	149
0	1361	228.324771591115	150
0	1374	230.156212404256	151
0	1390	231.769423618333	152
0	1402	232.989707605799	153
0	1418	234.27985206654	154
0	1420	235.954823671725	155
0	1436	237.176305725823	156
0	1452	238.83253505116	157
1	3	0.126198958082	0
1	3	0.126198958082	1
1	3	0.126198958082	2
1	12	2.098480134176	3
1	12	2.098480134176	4
1	12	2.098480134176	5
1	30	5.07797582357	6
1	30	5.07797582357	7
1	30	5.07797582357	8
1	48	7.428592970268	9
1	48	7.428592970268	10
1	48	7.428592970268	11
1	59	10.384162035653	12
1	59	10.384162035653	13
1	59	10.384162035653	14
1	75	11.437622043976	15
1	75	11.437622043976	16
1	75	11.437622043976	17
1	92	16.132047015363	18
1	92	16.132047015363	19
1	92	16.132047015363	20
1	103	19.1056877707	21
1	103	19.1056877707	22
1	103	19.1056877707	23
1	119	20.167065165699	24
1	119	20.167065165699	25
1	119	20.167065165699	26
1	135	21.441138897138	27
1	135	21.441138897138	28
1	135	21.441138897138	29
1	153	24.108290712327	30
1	153	24.108290712327	31
1	153	24.108290712327	32
1	171	27.533315158052	33
1	171	27.533315158052	34
1	171	27.533315158052	35
1	186	30.833997766835	36
1	186	30.833997766835	37
1	186	30.833997766835	38
1	202	32.282760991115	39
1	202	32.282760991115	40
1	202	32.282760991115	41
1	218	33.661148096453	42
1	218	33.661148096453	43
1	218	33.661148096453	44
1	238	38.971042704525	45
1	238	38.971042704525	46
1	238	38.971042704525	47
1	249	42.19445761472	48
1	249	42.19445761472	49
1	249	42.19445761472	50
1	262	45.731474711571	51
1	262	45.731474711571	52
1	262	45.731474711571	53
1	278	47.296050719073	54
1	278	47.296050719073	55
1	278	47.296050719073	56
1	295	55.935107884572	57
1	295	55.935107884572	58
1	295	55.935107884572	59
1	304	57.559465816107	60
1	304	57.559465816107	61
1	304	57.559465816107	62
1	314	62.523205540636	63
1	314	62.523205540636	64
1	314	62.523205540636	65
1	326	63.727587407375	66
1	326	63.727587407375	67
1	326	63.727587407375	68
1	335	65.346696760249	69
1	335	65.346696760249	70
1	335	65.346696760249	71
1	351	66.394389167696	72
1	351	66.394389167696	73
1	351	66.394389167696	74
1	371	70.10543253263	75
1	371	70.10543253263	76
1	371	70.10543253263	77
1	387	71.212542947563	78
1	387	71.212542947563	79
1	387	71.212542947563	80
1	403	72.72420613711	81
1	403	72.72420613711	82
1	403	72.72420613711	83
1	416	77.763493442704	84
1	416	77.763493442704	85
1	416	77.763493442704	86
1	434	80.822201471215	87
1	434	80.822201471215	88
1	434	80.822201471215	89
1	443	81.821160070805	90
1	443	81.821160070805	91
1	443	81.821160070805	92
1	459	82.953292058173	93
1	459	82.953292058173	94
1	459	82.953292058173	95
1	475	83.945906269177	96
1	475	83.945906269177	97
1	475	83.945906269177	98
1	484	85.904897475102	99
1	484	85.904897475102	100
1	484	85.904897475102	101
1	490	87.798630365973	102
1	490	87.798630365973	103
1	490	87.798630365973	104
1	498	91.022368996075	105
1	498	91.022368996075	106
1	498	91.022368996075	107
1	514	92.686244477792	108
1	514	92.686244477792	109
1	514	92.686244477792	110
1	534	97.444220029112	111
1	534	97.444220029112	112
1	534	97.444220029112	113
1	550	99.120340403428	114
1	550	99.120340403428	115
1	550	99.120340403428	116
1	562	105.673920308373	117
1	562	105.673920308373	118
1	562	105.673920308373	119
1	571	107.538281916674	120
1	571	107.538281916674	121
1	571	107.538281916674	122
1	582	110.577178994637	123
1	582	110.577178994637	124
1	582	110.577178994637	125
1	602	115.266676679524	126
1	602	115.266676679524	127
1	602	115.266676679524	128
1	618	117.061487611904	129
1	618	117.061487611904	130
1	618	117.061487611904	131
1	636	120.381692195803	132
1	636	120.381692195803	133
1	636	120.381692195803	134
1	656	124.224701480453	135
1	656	124.224701480453	136
1	656	124.224701480453	137
1	669	125.851219093409	138
1	669	125.851219093409	139
1	669	125.851219093409	140
1	685	127.747530129892	141
1	685	127.747530129892	142
1	685	127.747530129892	143
1	701	128.972911725055	144
1	701	128.972911725055	145
1	701	128.972911725055	146
1	717	130.523816845111	147
1	717	130.523816845111	148
1	717	130.523816845111	149
1	733	132.187988123282	150
1	733	132.187988123282	151
1	733	132.187988123282	152
1	751	135.272121879435	153
1	751	135.272121879435	154
1	751	135.272121879435	155
1	773	140.586696164968	156
1	773	140.586696164968	157
1	773	140.586696164968	158
1	779	142.214320075835	159
1	779	142.214320075835	160
1	779	142.214320075835	161
1	795	144.103395132293	162
1	795	144.103395132293	163
1	795	144.103395132293	164
1	810	147.3297657204	165
1	810	147.3297657204	166
1	810	147.3297657204	167
1	819	148.769771262391	168
1	819	148.769771262391	169
1	819	148.769771262391	170
1	835	150.239291129584	171
1	835	150.239291129584	172
1	835	150.239291129584	173
1	848	151.50580749722	174
1	848	151.50580749722	175
1	848	151.50580749722	176
1	864	152.572899086486	177
1	864	152.572899086486	178
1	864	152.572899086486	179
1	880	154.026120365621	180
1	880	154.026120365621	181
1	880	154.026120365621	182
1	889	155.157095620769	183
1	889	155.157095620769	184
1	889	155.157095620769	185
1	903	158.050021418973	186
1	903	158.050021418973	187
1	903	158.050021418973	188
1	923	163.025431730096	189
1	923	163.025431730096	190
1	923	163.025431730096	191
1	939	164.90884910166	192
1	939	164.90884910166	193
1	939	164.90884910166	194
1	950	167.908294472622	195
1	950	167.908294472622	196
1	950	167.908294472622	197
1	966	169.858585753563	198
1	966	169.858585753563	199
1	966	169.858585753563	200
1	982	171.430200935103	201
1	982	171.430200935103	202
1	982	171.430200935103	203
1	998	172.925237131734	204
1	998	172.925237131734	205
1	998	172.925237131734	206
1	1011	174.873459086567	207
1	1011	174.873459086567	208
1	1011	174.873459086567	209
1	1017	175.946613367855	210
1	1017	175.946613367855	211
1	1017	175.946613367855	212
1	1029	177.385762606145	213
1	1029	177.385762606145	214
1	1029	177.385762606145	215
1	1045	178.439537633011	216
1	1045	178.439537633011	217
1	1045	178.439537633011	218
1	1057	179.613077052821	219
1	1057	179.613077052821	220
1	1057	179.613077052821	221
1	1073	180.660913506365	222
1	1073	180.660913506365	223
1	1073	180.660913506365	224
1	1093	185.222421217314	225
1	1093	185.222421217314	226
1	1093	185.222421217314	227
1	1111	188.200961574591	228
1	1111	188.200961574591	229
1	1111	188.200961574591	230
1	1123	189.367330834262	231
1	1123	189.367330834262	232
1	1123	189.367330834262	233
1	1141	193.015108596242	234
1	1141	193.015108596242	235
1	1141	193.015108596242	236
1	1157	194.123633285789	237
1	1157	194.123633285789	238
1	1157	194.123633285789	239
1	1168	197.683485292586	240
1	1168	197.683485292586	241
1	1168	197.683485292586	242
1	1190	203.659557930273	243
1	1190	203.659557930273	244
1	1190	203.659557930273	245
1	1201	206.066997146922	246
1	1201	206.066997146922	247
1	1201	206.066997146922	248
1	1217	207.983325986777	249
1	1217	207.983325986777	250
1	1217	207.983325986777	251
1	1237	212.233961489452	252
1	1237	212.233961489452	253
1	1237	212.233961489452	254
1	1253	214.178072864623	255
1	1253	214.178072864623	256
1	1253	214.178072864623	257
1	1269	216.046862512635	258
1	1269	216.046862512635	259
1	1269	216.046862512635	260
1	1285	217.980927839578	261
1	1285	217.980927839578	262
1	1285	217.980927839578	263
1	1297	219.869033417475	264
1	1297	219.869033417475	265
1	1297	219.869033417475	266
1	1313	221.719572889946	267
1	1313	221.719572889946	268
1	1313	221.719572889946	269
1	1331	225.156748719344	270
1	1331	225.156748719344	271
1	1331	225.156748719344	272
1	1347	226.687979060801	273
1	1347	226.687979060801	274
1	1347	226.687979060801	275
1	1363	228.342254260434	276
1	1363	228.342254260434	277
1	1363	228.342254260434	278
1	1376	230.171351807723	279
1	1376	230.171351807723	280
1	1376	230.171351807723	281
1	1392	231.783020366033	282
1	1392	231.783020366033	283
1	1392	231.783020366033	284
1	1404	233.00922344563	285
1	1404	233.00922344563	286
1	1404	233.00922344563	287
1	1422	235.971120623353	288
1	1422	235.971120623353	289
1	1422	235.971120623353	290
1	1438	237.187719529613	291
1	1438	237.187719529613	292
1	1438	237.187719529613	293
1	1454	238.843237204471	294
1	1454	238.843237204471	295
1	1454	238.843237204471	296
2	7	0.205690100955	0
2	7	0.205690100955	1
2	20	2.135897094333	2
2	20	2.135897094333	3
2	34	5.093609275883	4
2	34	5.093609275883	5
2	70	10.425836624878	6
2	70	10.425836624878	7
2	79	11.457404502792	8
2	79	11.457404502792	9
2	96	16.145440634242	10
2	96	16.145440634242	11
2	114	19.148840030972	12
2	114	19.148840030972	13
2	124	20.188919953086	14
2	124	20.188919953086	15
2	139	21.472605440407	16
2	139	21.472605440407	17
2	157	24.131236910602	18
2	157	24.131236910602	19
2	197	30.883570046027	20
2	197	30.883570046027	21
2	206	32.299121871816	22
2	206	32.299121871816	23
2	222	33.672623075456	24
2	222	33.672623075456	25
2	242	38.981308310706	26
2	242	38.981308310706	27
2	253	42.238774569991	28
2	253	42.238774569991	29
2	273	45.78593851647	30
2	273	45.78593851647	31
2	321	62.546713097018	32
2	321	62.546713097018	33
2	330	63.737774916405	34
2	330	63.737774916405	35
2	339	65.360514671933	36
2	339	65.360514671933	37
2	362	66.432860214023	38
2	362	66.432860214023	39
2	375	70.122869998873	40
2	375	70.122869998873	41
2	391	71.234160331204	42
2	391	71.234160331204	43
2	407	72.760290545029	44
2	407	72.760290545029	45
2	421	77.782889215113	46
2	421	77.782889215113	47
2	447	81.835387251509	48
2	447	81.835387251509	49
2	464	82.979316859327	50
2	464	82.979316859327	51
2	479	83.975842710151	52
2	479	83.975842710151	53
2	502	91.069987431166	54
2	502	91.069987431166	55
2	518	92.705083520056	56
2	518	92.705083520056	57
2	538	97.454454442555	58
2	538	97.454454442555	59
2	590	110.603879981649	60
2	590	110.603879981649	61
2	606	115.278751578877	62
2	606	115.278751578877	63
2	622	117.07778155124	64
2	622	117.07778155124	65
2	641	120.393406957158	66
2	641	120.393406957158	67
2	677	125.881848665334	68
2	677	125.881848665334	69
2	696	127.795941320008	70
2	696	127.795941320008	71
2	705	128.985883250123	72
2	705	128.985883250123	73
2	721	130.535360086776	74
2	721	130.535360086776	75
2	737	132.199443329081	76
2	737	132.199443329081	77
2	755	135.293864147179	78
2	755	135.293864147179	79
2	783	142.227848774682	80
2	783	142.227848774682	81
2	814	147.342872798698	82
2	814	147.342872798698	83
2	830	148.835058219889	84
2	830	148.835058219889	85
2	852	151.516089263224	86
2	852	151.516089263224	87
2	875	152.630517991841	88
2	875	152.630517991841	89
2	884	154.043855856314	90
2	884	154.043855856314	91
2	894	155.191778985897	92
2	894	155.191778985897	93
2	907	158.072438942923	94
2	907	158.072438942923	95
2	931	163.052529240542	96
2	931	163.052529240542	97
2	943	164.944234437154	98
2	943	164.944234437154	99
2	955	167.928794225056	100
2	955	167.928794225056	101
2	970	169.875476972638	102
2	970	169.875476972638	103
2	993	171.490205795832	104
2	993	171.490205795832	105
2	1002	172.937815901756	106
2	1002	172.937815901756	107
2	1021	175.960905633678	108
2	1021	175.960905633678	109
2	1040	177.432677304751	110
2	1040	177.432677304751	111
2	1049	178.449867270083	112
2	1049	178.449867270083	113
2	1061	179.624916080358	114
2	1061	179.624916080358	115
2	1078	180.675267690244	116
2	1078	180.675267690244	117
2	1104	185.298528991502	118
2	1104	185.298528991502	119
2	1116	188.225664856244	120
2	1116	188.225664856244	121
2	1130	189.388492585703	122
2	1130	189.388492585703	123
2	1145	193.035582680745	124
2	1145	193.035582680745	125
2	1161	194.133741588078	126
2	1161	194.133741588078	127
2	1172	197.698269768578	128
2	1172	197.698269768578	129
2	1194	203.674291343787	130
2	1194	203.674291343787	131
2	1212	206.110804916309	132
2	1212	206.110804916309	133
2	1225	208.019024910823	134
2	1225	208.019024910823	135
2	1244	212.2570296293	136
2	1244	212.2570296293	137
2	1257	214.197164211147	138
2	1257	214.197164211147	139
2	1273	216.058997539632	140
2	1273	216.058997539632	141
2	1289	217.992345331864	142
2	1289	217.992345331864	143
2	1301	219.880177041323	144
2	1301	219.880177041323	145
2	1324	221.777436621857	146
2	1324	221.777436621857	147
2	1342	225.192980763103	148
2	1342	225.192980763103	149
2	1351	226.701237540193	150
2	1351	226.701237540193	151
2	1367	228.366560619163	152
2	1367	228.366560619163	153
2	1387	230.209160219489	154
2	1387	230.209160219489	155
2	1397	231.795157591133	156
2	1397	231.795157591133	157
2	1409	233.025464005014	158
2	1409	233.025464005014	159
2	1427	235.99337488814	160
2	1427	235.99337488814	161
2	1443	237.199468152713	162
2	1443	237.199468152713	163
2	1459	238.878252330498	164
2	1459	238.878252330498	165
3	16	2.119559067634	0
3	16	2.119559067634	1
3	35	5.09408605568	2
3	35	5.09408605568	3
3	52	7.456262482454	4
3	52	7.456262482454	5
3	63	10.399628422574	6
3	63	10.399628422574	7
3	107	19.118774058783	8
3	107	19.118774058783	9
3	123	20.182410476033	10
3	123	20.182410476033	11
3	146	21.495584166234	12
3	146	21.495584166234	13
3	158	24.132186192917	14
3	158	24.132186192917	15
3	175	27.576793634095	16
3	175	27.576793634095	17
3	190	30.848774952608	18
3	190	30.848774952608	19
3	207	32.305106772589	20
3	207	32.305106772589	21
3	229	33.700996488638	22
3	229	33.700996488638	23
3	266	45.746060890355	24
3	266	45.746060890355	25
3	282	47.311643569666	26
3	282	47.311643569666	27
3	299	55.945234239316	28
3	299	55.945234239316	29
3	318	62.533718663945	30
3	318	62.533718663945	31
3	340	65.365109785809	32
3	340	65.365109785809	33
3	355	66.407466921109	34
3	355	66.407466921109	35
3	376	70.125634080799	36
3	376	70.125634080799	37
3	398	71.266422207875	38
3	398	71.266422207875	39
3	420	77.778088066209	40
3	420	77.778088066209	41
3	438	80.836268908775	42
3	438	80.836268908775	43
3	450	81.847740612984	44
3	450	81.847740612984	45
3	463	82.971196281026	46
3	463	82.971196281026	47
3	509	91.093785508647	48
3	509	91.093785508647	49
3	525	92.726231664434	50
3	525	92.726231664434	51
3	539	97.456967261566	52
3	539	97.456967261566	53
3	566	105.691210000068	54
3	566	105.691210000068	55
3	575	107.564484938025	56
3	575	107.564484938025	57
3	586	110.587872838948	58
3	586	110.587872838948	59
3	607	115.287474542567	60
3	607	115.287474542567	61
3	623	117.079259522896	62
3	623	117.079259522896	63
3	640	120.392262761044	64
3	640	120.392262761044	65
3	660	124.241842349251	66
3	660	124.241842349251	67
3	673	125.865140078746	68
3	673	125.865140078746	69
3	689	127.758569782596	70
3	689	127.758569782596	71
3	706	128.985918701037	72
3	706	128.985918701037	73
3	722	130.537387142858	74
3	722	130.537387142858	75
3	738	132.205462592764	76
3	738	132.205462592764	77
3	756	135.29392046255	78
3	756	135.29392046255	79
3	786	142.240344909544	80
3	786	142.240344909544	81
3	799	144.121181133112	82
3	799	144.121181133112	83
3	823	148.789816657442	84
3	823	148.789816657442	85
3	839	150.259139399485	86
3	839	150.259139399485	87
3	859	151.584369542404	88
3	859	151.584369542404	89
3	868	152.583801140786	90
3	868	152.583801140786	91
3	893	155.182990353152	92
3	893	155.182990353152	93
3	914	158.10602839759	94
3	914	158.10602839759	95
3	927	163.038501024338	96
3	927	163.038501024338	97
3	954	167.924917191388	98
3	954	167.924917191388	99
3	974	169.889817052468	100
3	974	169.889817052468	101
3	986	171.441967565858	102
3	986	171.441967565858	103
3	1022	175.965151671401	104
3	1022	175.965151671401	105
3	1033	177.403081818632	106
3	1033	177.403081818632	107
3	1050	178.45859133709	108
3	1050	178.45859133709	109
3	1068	179.660106849343	110
3	1068	179.660106849343	111
3	1077	180.671045740363	112
3	1077	180.671045740363	113
3	1097	185.274015461118	114
3	1097	185.274015461118	115
3	1115	188.222165522785	116
3	1115	188.222165522785	117
3	1127	189.377457672914	118
3	1127	189.377457672914	119
3	1146	193.042851696365	120
3	1146	193.042851696365	121
3	1173	197.700914464798	122
3	1173	197.700914464798	123
3	1205	206.077836720415	124
3	1205	206.077836720415	125
3	1221	207.999040698906	126
3	1221	207.999040698906	127
3	1241	212.245548533711	128
3	1241	212.245548533711	129
3	1258	214.198240018832	130
3	1258	214.198240018832	131
3	1277	216.074897085034	132
3	1277	216.074897085034	133
3	1290	217.997742323654	134
3	1290	217.997742323654	135
3	1302	219.883450481162	136
3	1302	219.883450481162	137
3	1317	221.74504298246	138
3	1317	221.74504298246	139
3	1335	225.168691232069	140
3	1335	225.168691232069	141
3	1354	226.741661220915	142
3	1354	226.741661220915	143
3	1380	230.181990156259	144
3	1380	230.181990156259	145
3	1396	231.794988624939	146
3	1396	231.794988624939	147
3	1408	233.01963265905	148
3	1408	233.01963265905	149
3	1426	235.986312358737	150
3	1426	235.986312358737	151
3	1442	237.199126113034	152
3	1442	237.199126113034	153
3	1458	238.869992859544	154
3	1458	238.869992859544	155
4	19	2.13499246142	0
4	19	2.13499246142	1
4	19	2.13499246142	2
4	40	5.105817008052	3
4	40	5.105817008052	4
4	40	5.105817008052	5
4	66	10.411829291021	6
4	66	10.411829291021	7
4	66	10.411829291021	8
4	82	11.481194340403	9
4	82	11.481194340403	10
4	82	11.481194340403	11
4	110	19.12932244972	12
4	110	19.12932244972	13
4	110	19.12932244972	14
4	129	20.200188826988	15
4	129	20.200188826988	16
4	129	20.200188826988	17
4	142	21.48408434841	18
4	142	21.48408434841	19
4	142	21.48408434841	20
4	163	24.152955342261	21
4	163	24.152955342261	22
4	163	24.152955342261	23
4	178	27.596514198428	24
4	178	27.596514198428	25
4	178	27.596514198428	26
4	193	30.873541301507	27
4	193	30.873541301507	28
4	193	30.873541301507	29
4	212	32.318886529471	30
4	212	32.318886529471	31
4	212	32.318886529471	32
4	225	33.684754464062	33
4	225	33.684754464062	34
4	225	33.684754464062	35
4	269	45.759482413758	36
4	269	45.759482413758	37
4	269	45.759482413758	38
4	343	65.371672552919	39
4	343	65.371672552919	40
4	343	65.371672552919	41
4	358	66.422088612325	42
4	358	66.422088612325	43
4	358	66.422088612325	44
4	381	70.142632851189	45
4	381	70.142632851189	46
4	381	70.142632851189	47
4	394	71.246830790389	48
4	394	71.246830790389	49
4	394	71.246830790389	50
4	426	77.794239735114	51
4	426	77.794239735114	52
4	426	77.794239735114	53
4	451	81.849765864233	54
4	451	81.849765864233	55
4	451	81.849765864233	56
4	469	83.019282847246	57
4	469	83.019282847246	58
4	469	83.019282847246	59
4	505	91.082927152599	60
4	505	91.082927152599	61
4	505	91.082927152599	62
4	521	92.715860150974	63
4	521	92.715860150974	64
4	521	92.715860150974	65
4	544	97.468272669868	66
4	544	97.468272669868	67
4	544	97.468272669868	68
4	589	110.598579310027	69
4	589	110.598579310027	70
4	589	110.598579310027	71
4	610	115.295041666686	72
4	610	115.295041666686	73
4	610	115.295041666686	74
4	628	117.091403377221	75
4	628	117.091403377221	76
4	628	117.091403377221	77
4	646	120.404924134572	78
4	646	120.404924134572	79
4	646	120.404924134572	80
4	663	124.253405284569	81
4	663	124.253405284569	82
4	663	124.253405284569	83
4	676	125.879480596838	84
4	676	125.879480596838	85
4	676	125.879480596838	86
4	692	127.780727436187	87
4	692	127.780727436187	88
4	692	127.780727436187	89
4	711	129.007040872019	90
4	711	129.007040872019	91
4	711	129.007040872019	92
4	727	130.553435171001	93
4	727	130.553435171001	94
4	727	130.553435171001	95
4	743	132.231274302235	96
4	743	132.231274302235	97
4	743	132.231274302235	98
4	761	135.312029134317	99
4	761	135.312029134317	100
4	761	135.312029134317	101
4	789	142.251272821945	102
4	789	142.251272821945	103
4	789	142.251272821945	104
4	802	144.147475544411	105
4	802	144.147475544411	106
4	802	144.147475544411	107
4	826	148.811750300044	108
4	826	148.811750300044	109
4	826	148.811750300044	110
4	842	150.269955697232	111
4	842	150.269955697232	112
4	842	150.269955697232	113
4	855	151.569473429473	114
4	855	151.569473429473	115
4	855	151.569473429473	116
4	871	152.617306942748	117
4	871	152.617306942748	118
4	871	152.617306942748	119
4	910	158.085511660796	120
4	910	158.085511660796	121
4	910	158.085511660796	122
4	930	163.051808072394	123
4	930	163.051808072394	124
4	930	163.051808072394	125
4	960	167.942739325507	126
4	960	167.942739325507	127
4	960	167.942739325507	128
4	973	169.885570898141	129
4	973	169.885570898141	130
4	973	169.885570898141	131
4	989	171.452580460715	132
4	989	171.452580460715	133
4	989	171.452580460715	134
4	1005	172.949454700756	135
4	1005	172.949454700756	136
4	1005	172.949454700756	137
4	1036	177.421538180811	138
4	1036	177.421538180811	139
4	1036	177.421538180811	140
4	1064	179.640291064283	141
4	1064	179.640291064283	142
4	1064	179.640291064283	143
4	1081	180.68339451709	144
4	1081	180.68339451709	145
4	1081	180.68339451709	146
4	1100	185.288151059309	147
4	1100	185.288151059309	148
4	1100	185.288151059309	149
4	1133	189.401466088839	150
4	1133	189.401466088839	151
4	1133	189.401466088839	152
4	1151	193.062341409468	153
4	1151	193.062341409468	154
4	1151	193.062341409468	155
4	1178	197.725493851341	156
4	1178	197.725493851341	157
4	1178	197.725493851341	158
4	1208	206.090163933878	159
4	1208	206.090163933878	160
4	1208	206.090163933878	161
4	1224	208.009327466696	162
4	1224	208.009327466696	163
4	1224	208.009327466696	164
4	1247	212.272982713417	165
4	1247	212.272982713417	166
4	1247	212.272982713417	167
4	1263	214.212704962846	168
4	1263	214.212704962846	169
4	1263	214.212704962846	170
4	1276	216.069856671401	171
4	1276	216.069856671401	172
4	1276	216.069856671401	173
4	1307	219.899349448984	174
4	1307	219.899349448984	175
4	1307	219.899349448984	176
4	1320	221.762548711178	177
4	1320	221.762548711178	178
4	1320	221.762548711178	179
4	1338	225.178890964499	180
4	1338	225.178890964499	181
4	1338	225.178890964499	182
4	1357	226.754689829983	183
4	1357	226.754689829983	184
4	1357	226.754689829983	185
4	1370	228.39127141168	186
4	1370	228.39127141168	187
4	1370	228.39127141168	188
4	1383	230.196424850809	189
4	1383	230.196424850809	190
4	1383	230.196424850809	191
4	1414	233.04102133104	192
4	1414	233.04102133104	193
4	1414	233.04102133104	194
4	1430	236.002248798619	195
4	1430	236.002248798619	196
4	1430	236.002248798619	197
4	1448	237.223683611462	198
4	1448	237.223683611462	199
4	1448	237.223683611462	200
5	23	2.14499246142	0
5	43	5.115817008052	1
5	69	10.421829291021	2
5	85	11.491194340403	3
5	132	20.210188826988	4
5	145	21.49408434841	5
5	166	24.162955342261	6
5	181	27.606514198428	7
5	196	30.883541301507	8
5	215	32.328886529471	9
5	272	45.769482413758	10
5	348	65.381672552919	11
5	384	70.152632851189	12
5	397	71.256830790389	13
5	429	77.804239735114	14
5	456	81.859765864233	15
5	524	92.725860150974	16
5	593	110.608579310027	17
5	615	115.305041666686	18
5	631	117.101403377221	19
5	649	120.414924134572	20
5	666	124.263405284569	21
5	680	125.889480596838	22
5	695	127.790727436187	23
5	714	129.017040872019	24
5	730	130.563435171001	25
5	746	132.241274302235	26
5	764	135.322029134317	27
5	792	142.261272821945	28
5	805	144.157475544411	29
5	829	148.821750300044	30
5	845	150.279955697232	31
5	858	151.579473429473	32
5	874	152.627306942748	33
5	913	158.095511660796	34
5	963	167.952739325507	35
5	992	171.462580460715	36
5	1008	172.959454700756	37
5	1039	177.431538180811	38
5	1067	179.650291064283	39
5	1086	180.69339451709	40
5	1103	185.298151059309	41
5	1136	189.411466088839	42
5	1154	193.072341409468	43
5	1181	197.735493851341	44
5	1211	206.100163933878	45
5	1266	214.222704962846	46
5	1341	225.188890964499	47
5	1360	226.764689829983	48
5	1373	228.40127141168	49
5	1386	230.206424850809	50
5	1417	233.05102133104	51
5	1451	237.233683611462	52

