version 2
run General-1-20230921-23:16:53-8867
attr configname General
attr datetime 20230921-23:16:53
attr experiment General
attr inifile omnetpp.ini
attr iterationvars ""
attr iterationvarsf ""
attr measurement ""
attr network Network2
attr processid 8867
attr repetition 1
attr replication #1
attr resultdir results
attr runnumber 1
attr seedset 1
param Network2.node[*].transmissionTime "uniform(1s, 2s)"
param Network2.node[*].delayTime "uniform(0.01s, 0.2s)"
param Network2.node[*].processingTime exponential(0.01s)
param Network2.node[*].lossProbability 0.2

vector 0 Network2.node[0] txVector ETV
vector 1 Network2.node[1] txVector ETV
vector 2 Network2.node[3] txVector ETV
vector 3 Network2.node[4] txVector ETV
vector 4 Network2.node[6] txVector ETV
vector 5 Network2.node[2] txVector ETV
vector 6 Network2.node[5] rxVector ETV
0	1	0.089234179703	0
0	9	2.086418987836	1
0	23	3.474329728053	2
0	27	4.931534537233	3
0	35	6.709923772726	4
0	39	8.604530436571	5
0	41	9.877580413946	6
0	49	10.936823611033	7
0	55	12.628700723757	8
0	63	13.662872033778	9
0	73	15.11076555832	10
0	85	16.376312215931	11
0	91	17.790491482129	12
0	97	19.30538058968	13
0	99	20.753360772624	14
0	107	22.645496641171	15
0	121	24.396308743746	16
0	125	26.059750242044	17
0	137	27.846701715958	18
0	139	29.463846632397	19
0	149	30.790491534515	20
0	157	32.719928768814	21
0	167	33.911884844887	22
0	169	35.308198133136	23
0	171	36.415563441465	24
0	179	37.925373719657	25
0	187	39.049547036762	26
0	201	40.862542008401	27
0	203	42.799732334332	28
0	205	44.716142207503	29
0	209	46.498100670173	30
0	217	48.057817649448	31
0	219	49.310143396144	32
0	221	51.053969253439	33
0	235	52.249398733608	34
0	243	54.063275095427	35
0	251	55.443416271245	36
0	255	57.207657883761	37
0	257	58.417831895992	38
0	259	60.170587454343	39
0	275	61.237123936767	40
0	277	62.924182235616	41
0	287	64.350993079486	42
0	291	66.277343790632	43
0	293	67.881654280124	44
0	301	69.431202199429	45
0	303	70.785779433211	46
0	305	71.864299402691	47
0	313	73.557484600812	48
0	321	74.662875851037	49
0	325	76.24489003036	50
0	343	78.150282342339	51
0	345	79.694179579269	52
0	349	80.885439849345	53
0	351	81.939349123862	54
0	353	83.359542804424	55
0	357	85.038611641739	56
0	365	86.906129096522	57
0	377	88.480840604407	58
0	407	89.803521605096	59
0	409	91.376010125856	60
0	411	93.109152657333	61
0	419	94.628164286147	62
0	437	96.40101471695	63
0	443	97.540294766313	64
0	445	98.98112308828	65
0	449	100.461401271288	66
0	455	101.669595710355	67
0	465	103.286280779288	68
0	471	104.442497612097	69
0	479	105.961849432326	70
0	493	107.828457703468	71
0	501	109.598696432662	72
0	509	111.377618674542	73
0	517	112.737178978631	74
0	521	114.283249784382	75
0	533	115.741400662698	76
0	547	117.432342803925	77
0	553	118.898150507249	78
0	557	120.101824835762	79
0	573	121.4828409605	80
0	583	122.939818867835	81
0	593	124.849455816093	82
0	595	126.52947496239	83
0	609	128.113434750707	84
0	613	129.916598085434	85
0	619	131.570287841026	86
0	629	133.179100929879	87
0	639	134.336830995398	88
0	643	136.336600113547	89
0	645	137.826299722892	90
0	659	139.71567447123	91
0	663	140.839954511615	92
0	667	142.352247209175	93
0	681	143.657818823241	94
0	693	144.667167401294	95
0	705	146.553666885131	96
0	707	148.16076105263	97
0	717	149.574347465419	98
0	723	150.849817652841	99
0	735	152.024537799534	100
0	737	153.735633118896	101
0	739	154.92909369001	102
0	745	155.997524750306	103
0	749	157.952734922179	104
0	751	159.776972763593	105
0	761	161.409588582468	106
0	765	162.878216924033	107
0	767	164.198188361599	108
0	783	165.310088120055	109
0	791	166.983937121582	110
0	797	167.996540885539	111
0	813	169.640901967771	112
0	815	170.651673760851	113
0	827	171.898594246366	114
0	831	173.207236192076	115
0	833	174.428632891624	116
0	837	175.642745031629	117
0	845	177.136013298881	118
0	857	178.367715608216	119
0	859	180.07376741467	120
0	861	181.55179872632	121
0	865	182.678008830296	122
0	873	184.085139471693	123
0	885	185.132603425421	124
0	895	186.492736082878	125
0	909	188.397367084753	126
0	917	190.290683423523	127
0	925	192.210630651219	128
0	931	193.659946247824	129
0	941	194.921210454433	130
0	945	196.908536624052	131
0	951	198.842439236241	132
0	971	200.622968789312	133
0	975	201.815396342083	134
0	991	203.105540802824	135
0	999	204.510528703342	136
0	1005	206.166758028679	137
0	1013	207.77223702835	138
0	1019	209.442125031148	139
0	1029	210.570638449985	140
0	1033	211.578571327852	141
0	1041	212.641080461332	142
0	1065	214.080911277683	143
0	1067	215.215064802562	144
0	1071	216.923882102483	145
0	1073	218.718460460316	146
0	1083	220.225540385006	147
0	1093	221.547360350268	148
0	1103	223.529851293314	149
0	1105	224.962789805962	150
0	1115	226.320300970583	151
0	1119	228.175657387714	152
0	1131	230.108805990203	153
0	1139	231.122573507375	154
0	1149	233.029365391827	155
0	1157	234.454014507246	156
0	1161	235.842630934327	157
0	1163	237.399568581146	158
0	1171	239.210015527562	159
1	3	0.126198958082	0
1	11	2.107497921294	1
1	25	3.489963180366	2
1	29	4.954121309345	3
1	37	6.720812568012	4
1	43	9.898683054255	5
1	51	10.950614505777	6
1	57	12.648483182573	7
1	65	13.696796639943	8
1	75	15.127529897805	9
1	87	16.38682465898	10
1	93	17.829422292918	11
1	101	20.768102244165	12
1	109	22.668442839446	13
1	123	24.416029308079	14
1	127	26.0704123594	15
1	141	29.481334459832	16
1	151	30.812232339145	17
1	159	32.73617079339	18
1	173	36.426640799614	19
1	181	37.93864742898	20
1	189	39.062968560165	21
1	207	44.735721904657	22
1	211	46.508227024917	23
1	223	51.07267666704	24
1	237	52.273777690117	25
1	245	54.081281266142	26
1	253	55.455808158321	27
1	261	60.183602764314	28
1	279	62.947222281294	29
1	289	64.36448172823	30
1	295	67.917715729244	31
1	307	71.874427344328	32
1	315	73.574477780818	33
1	323	74.693981622845	34
1	327	76.261049674654	35
1	347	79.713067306173	36
1	355	83.394626822926	37
1	359	85.064037018419	38
1	367	86.926019759426	39
1	379	88.501951162023	40
1	413	93.133887922138	41
1	421	94.650395235637	42
1	439	96.418786627942	43
1	447	98.995177003969	44
1	451	100.474251907114	45
1	457	101.682257083883	46
1	467	103.303421648086	47
1	473	104.467882562936	48
1	481	106.001768028259	49
1	495	107.851615264698	50
1	503	109.615884400071	51
1	511	111.395693758767	52
1	519	112.754653448113	53
1	523	114.315080757536	54
1	535	115.753491057482	55
1	549	117.455251922892	56
1	555	118.90907841965	57
1	559	120.125682113443	58
1	575	121.497323768767	59
1	585	122.953067938078	60
1	597	126.547996883408	61
1	611	128.128582961924	62
1	615	129.926979548914	63
1	621	131.581410699714	64
1	631	133.191178944208	65
1	641	134.355357863413	66
1	647	137.857055036129	67
1	661	139.751059806724	68
1	665	140.877904732907	69
1	669	142.368869927941	70
1	683	143.676416886092	71
1	695	144.685708644226	72
1	709	148.187708369964	73
1	719	149.58487768946	74
1	725	150.86827401502	75
1	741	154.960267699276	76
1	747	156.012899734231	77
1	753	159.798021062494	78
1	763	161.425702501881	79
1	769	164.211942784559	80
1	785	165.334791401708	81
1	793	167.005098873023	82
1	799	168.006593421683	83
1	817	170.664548843907	84
1	829	171.921808495503	85
1	835	174.440851184853	86
1	839	175.665985478379	87
1	847	177.148340512344	88
1	863	181.599113903733	89
1	867	182.715335532317	90
1	875	184.10109255581	91
1	887	185.143394047769	92
1	897	186.507358884981	93
1	911	188.416539492414	94
1	919	190.301402637547	95
1	927	192.228562347564	96
1	933	193.710151012741	97
1	943	194.934468933825	98
1	947	196.938048662676	99
1	953	198.857137287814	100
1	973	200.635216578334	101
1	977	201.834912181914	102
1	993	203.127795067611	103
1	1001	204.521942507132	104
1	1007	206.191315527107	105
1	1015	207.798992683423	106
1	1021	209.465422800844	107
1	1031	210.62605107371	108
1	1035	211.594353801151	109
1	1043	212.654034179547	110
1	1069	215.2267278684	111
1	1075	218.744154032116	112
1	1085	220.23743511109	113
1	1095	221.567474778011	114
1	1107	224.976798715929	115
1	1117	226.352228097121	116
1	1121	228.18849419996	117
1	1133	230.124196937435	118
1	1141	231.147343188477	119
1	1151	233.044016302935	120
1	1159	234.470999254665	121
1	1165	237.411034401395	122
1	1173	239.221777062931	123
2	5	0.205690100955	0
2	17	2.15128295499	1
2	31	4.967881695569	2
2	61	12.674540347902	3
2	77	15.139116673589	4
2	81	15.163220539724	5
2	89	16.397288719178	6
2	95	17.862794256319	7
2	133	26.13719592664	8
2	153	30.822958922399	9
2	175	36.444380708136	10
2	183	37.957088679986	11
2	191	39.089424662877	12
2	199	39.154950980894	13
2	225	51.096184223422	14
2	239	52.287595601801	15
2	249	54.129181366114	16
2	271	60.282547803777	17
2	311	71.92710229042	18
2	317	73.601058322997	19
2	337	76.351251927656	20
2	361	85.110450697636	21
2	381	88.516765493009	22
2	385	88.540818133765	23
2	393	88.596841047447	24
2	453	100.484822472355	25
2	469	103.314984583404	26
2	487	106.055469504001	27
2	497	107.865380475977	28
2	513	111.442479234815	29
2	529	114.376343993621	30
2	543	115.828304506922	31
2	561	120.159074797882	32
2	569	120.247327068994	33
2	599	126.558278649412	34
2	635	133.242832863451	35
2	653	137.939341531589	36
2	685	143.70354293099	37
2	689	143.750127379241	38
2	699	144.732359223962	39
2	721	149.609957266873	40
2	729	150.898436342427	41
2	757	159.826358445701	42
2	777	164.310094877905	43
2	787	165.345023219286	44
2	803	168.041154880098	45
2	823	170.721203701916	46
2	849	177.168981494775	47
2	853	177.203474715515	48
2	869	182.731248848104	49
2	879	184.156235116841	50
2	893	185.190030730906	51
2	907	186.578328458608	52
2	913	188.442067072178	53
2	921	190.320175737656	54
2	929	192.251396664122	55
2	937	193.754991159196	56
2	949	196.955531331995	57
2	955	198.879218397382	58
2	963	198.952754051452	59
2	967	198.978448722557	60
2	979	201.845321395334	61
2	983	201.880203550738	62
2	987	201.907483431841	63
2	1037	211.604443594142	64
2	1059	212.794524504844	65
2	1079	218.77002454187	66
2	1091	220.298627388672	67
2	1129	228.25521902283	68
2	1153	233.064179557783	69
2	1167	237.423067240018	70
2	1175	239.250517373324	71
3	7	0.21665893968	0
3	21	2.184991916675	1
3	33	4.98518297262	2
3	71	13.753137208761	3
3	83	15.203165496826	4
3	105	20.794392316403	5
3	119	22.802406566562	6
3	135	26.150782130713	7
3	147	29.553897954863	8
3	155	30.834433901402	9
3	165	32.80023826326	10
3	177	36.488697663407	11
3	233	51.185462751709	12
3	273	60.316387475419	13
3	285	63.05763679871	14
3	319	73.614363895364	15
3	341	76.410060144473	16
3	363	85.122167552797	17
3	435	94.768456501151	18
3	463	101.731686923211	19
3	477	104.497214361894	20
3	491	106.097077049256	21
3	499	107.885385445058	22
3	515	111.454748966611	23
3	531	114.402703652463	24
3	545	115.838890648599	25
3	581	121.556809959315	26
3	607	126.676847542484	27
3	637	133.265993101983	28
3	657	137.979194571188	29
3	679	142.456552987622	30
3	691	143.764768290901	31
3	703	144.756576792984	32
3	715	148.255245244062	33
3	733	150.931117132255	34
3	759	159.838707222428	35
3	781	164.331610526297	36
3	789	165.381943586434	37
3	811	168.12184154582	38
3	825	170.749757501391	39
3	883	184.183398305318	40
3	915	188.460562862727	41
3	923	190.331800120983	42
3	939	193.767333087158	43
3	969	199.00990697299	44
3	989	201.923780383469	45
3	1011	206.257768391163	46
3	1027	209.545680314589	47
3	1039	211.615333653712	48
3	1063	212.84363989486	49
3	1101	221.615494984823	50
3	1113	225.043699350561	51
3	1147	231.192390508074	52
3	1155	233.08416668328	53
3	1169	237.461634763403	54
3	1179	239.293531543467	55
4	13	2.125237518997	0
4	45	9.914149441176	1
4	67	13.708069185263	2
4	111	22.690161271105	3
4	115	22.738468773294	4
4	129	26.089049095716	5
4	143	29.503680241306	6
4	161	32.753268591532	7
4	195	39.128740251812	8
4	215	46.565634533904	9
4	229	51.163031397705	10
4	263	60.195149007313	11
4	267	60.251227655573	12
4	281	62.986984778508	13
4	297	67.932310352749	14
4	329	76.27530056639	15
4	333	76.328631340635	16
4	369	86.948055622559	17
4	373	86.982290950231	18
4	389	88.574526971766	19
4	397	88.660132095888	20
4	401	88.691166506544	21
4	405	88.75012250164	22
4	415	93.144581766449	23
4	423	94.66084958203	24
4	427	94.698314549135	25
4	431	94.733032586678	26
4	459	101.699510833735	27
4	483	106.021579296957	28
4	505	109.626351765068	29
4	525	114.326828997062	30
4	539	115.779864049551	31
4	551	117.468780621739	32
4	565	120.214104530375	33
4	577	121.517369163818	34
4	589	122.9905546557	35
4	603	126.639752686157	36
4	623	131.621609675808	37
4	627	131.676275086602	38
4	649	137.870124330371	39
4	671	142.379146592295	40
4	675	142.422421236443	41
4	711	148.209810845496	42
4	773	164.279753112162	43
4	807	168.081117311409	44
4	819	170.689412169536	45
4	841	175.687211373731	46
4	889	185.153971833077	47
4	899	186.523295292698	48
4	903	186.545505260664	49
4	959	198.904996149385	50
4	995	203.143731507493	51
4	1003	204.533349090553	52
4	1023	209.483796010437	53
4	1047	212.685011340935	54
4	1051	212.725403300689	55
4	1055	212.767535469675	56
4	1087	220.27238527015	57
4	1097	221.580788149859	58
4	1109	224.987446343366	59
4	1125	228.220888696394	60
4	1135	230.137680498791	61
4	1143	231.162888619101	62
5	15	2.138995710924	0
5	19	2.163891113489	1
5	47	9.929456117637	2
5	53	10.978609943067	3
5	59	12.662028459347	4
5	69	13.718264754814	5
5	79	15.152140962754	6
5	103	20.779909722449	7
5	113	22.714061983439	8
5	117	22.771091482244	9
5	131	26.103826281489	10
5	145	29.537598246144	11
5	163	32.788911277724	12
5	185	37.975321927046	13
5	193	39.104991784866	14
5	197	39.144333102405	15
5	213	46.552423590904	16
5	227	51.112991859432	17
5	231	51.174736806661	18
5	241	52.298753482787	19
5	247	54.116103612701	20
5	265	60.215350555482	21
5	269	60.265150935865	22
5	283	63.022914166883	23
5	299	67.97534993454	24
5	309	71.916950961352	25
5	331	76.288665352716	26
5	335	76.338787892426	27
5	339	76.377721276066	28
5	371	86.971919436771	29
5	375	87.004266128688	30
5	383	88.526999906452	31
5	387	88.559061152535	32
5	391	88.586740546842	33
5	395	88.622818058387	34
5	399	88.681000508728	35
5	403	88.72046968609	36
5	417	93.158777745138	37
5	425	94.687555201692	38
5	429	94.716742498869	39
5	433	94.74947906655	40
5	441	96.431758812575	41
5	461	101.711963437318	42
5	475	104.482873843802	43
5	485	106.032618949661	44
5	489	106.074891766091	45
5	507	109.639922062815	46
5	527	114.361778360503	47
5	537	115.766636538916	48
5	541	115.792904509613	49
5	563	120.20112312609	50
5	567	120.236462167012	51
5	571	120.260434147292	52
5	579	121.532276580272	53
5	587	122.980441211474	54
5	591	123.001370953447	55
5	601	126.611662815661	56
5	605	126.655732633474	57
5	617	129.946616348866	58
5	625	131.653697554932	59
5	633	133.213086397419	60
5	651	137.888933051276	61
5	655	137.965418984698	62
5	673	142.392796518698	63
5	677	142.439661768547	64
5	687	143.738360748486	65
5	697	144.720991778435	66
5	701	144.744937993984	67
5	713	148.240952978239	68
5	727	150.87941313896	69
5	731	150.912063428176	70
5	743	155.007297495798	71
5	755	159.812004261822	72
5	771	164.263537028363	73
5	775	164.297174304618	74
5	779	164.321428163989	75
5	795	167.029107288948	76
5	801	168.020680795595	77
5	805	168.067913608821	78
5	809	168.107496267724	79
5	821	170.706841341748	80
5	843	175.708925634915	81
5	851	177.187053271265	82
5	855	177.219189427644	83
5	871	182.754316987952	84
5	877	184.132414946896	85
5	881	184.169895887219	86
5	891	185.177799732844	87
5	901	186.534712784984	88
5	905	186.563911394921	89
5	935	193.739829083908	90
5	957	198.894357800849	91
5	961	198.929908105796	92
5	965	198.964041107015	93
5	981	201.861193371652	94
5	985	201.894445425934	95
5	997	203.159949012983	96
5	1009	206.229259674138	97
5	1017	207.816287891978	98
5	1025	209.523523257045	99
5	1045	212.673568726478	100
5	1049	212.708639512117	101
5	1053	212.746032258211	102
5	1057	212.782422827615	103
5	1061	212.832547776088	104
5	1077	218.754807649777	105
5	1081	218.790567007445	106
5	1089	220.287609563643	107
5	1099	221.60045312079	108
5	1111	225.013963432835	109
5	1123	228.204402222003	110
5	1127	228.240274856578	111
5	1137	230.162810159772	112
5	1145	231.175810823137	113
5	1177	239.276628378416	114
6	22	2.194991916675	0
6	34	4.99518297262	1
6	72	13.763137208761	2
6	84	15.213165496826	3
6	106	20.804392316403	4
6	136	26.160782130713	5
6	148	29.563897954863	6
6	156	30.844433901402	7
6	178	36.498697663407	8
6	234	51.195462751709	9
6	274	60.326387475419	10
6	286	63.06763679871	11
6	320	73.624363895364	12
6	342	76.420060144473	13
6	364	85.132167552797	14
6	436	94.778456501151	15
6	464	101.741686923211	16
6	492	106.107077049256	17
6	500	107.895385445058	18
6	516	111.464748966611	19
6	532	114.412703652463	20
6	546	115.848890648599	21
6	582	121.566809959315	22
6	638	133.275993101983	23
6	658	137.989194571188	24
6	680	142.466552987622	25
6	692	143.774768290901	26
6	704	144.766576792984	27
6	760	159.848707222428	28
6	782	164.341610526297	29
6	790	165.391943586434	30
6	812	168.13184154582	31
6	826	170.759757501391	32
6	884	184.193398305318	33
6	924	190.341800120983	34
6	940	193.777333087158	35
6	970	199.01990697299	36
6	990	201.933780383469	37
6	1040	211.625333653712	38
6	1102	221.625494984823	39
6	1148	231.202390508074	40
6	1156	233.09416668328	41
6	1170	237.471634763403	42

