version 2
run General-0-20230921-23:16:53-8867
attr configname General
attr datetime 20230921-23:16:53
attr experiment General
attr inifile omnetpp.ini
attr iterationvars ""
attr iterationvarsf ""
attr measurement ""
attr network Network2
attr processid 8867
attr repetition 0
attr replication #0
attr resultdir results
attr runnumber 0
attr seedset 0
param Network2.node[*].transmissionTime "uniform(1s, 2s)"
param Network2.node[*].delayTime "uniform(0.01s, 0.2s)"
param Network2.node[*].processingTime exponential(0.01s)
param Network2.node[*].lossProbability 0.2

vector 0 Network2.node[0] txVector ETV
vector 1 Network2.node[1] txVector ETV
vector 2 Network2.node[3] txVector ETV
vector 3 Network2.node[2] txVector ETV
vector 4 Network2.node[4] txVector ETV
vector 5 Network2.node[5] rxVector ETV
vector 6 Network2.node[6] txVector ETV
0	1	0.114274565438	0
0	9	1.707119181827	1
0	17	3.670781945885	2
0	19	5.506860714714	3
0	21	6.844256876345	4
0	23	8.492428752902	5
0	27	9.860670290264	6
0	35	11.730682435521	7
0	41	13.370603452512	8
0	49	14.785265393631	9
0	59	16.109406397754	10
0	73	18.011754975963	11
0	79	19.646029029118	12
0	91	21.641328594724	13
0	95	22.837910951425	14
0	99	23.935012222577	15
0	107	25.906957221527	16
0	113	26.94614501049	17
0	117	28.634806196747	18
0	123	29.851628329914	19
0	137	31.772785941914	20
0	147	33.601725970239	21
0	159	34.997824248469	22
0	167	36.81162206813	23
0	175	38.536876349554	24
0	177	40.011743871106	25
0	189	41.481876059512	26
0	199	43.07274882247	27
0	213	44.508613741801	28
0	223	46.01692919208	29
0	231	47.437004559751	30
0	235	48.796982618825	31
0	241	50.136386434858	32
0	251	51.307373027628	33
0	265	52.807399321425	34
0	277	54.019789823408	35
0	283	55.454206452316	36
0	285	56.996705229238	37
0	287	58.851318812307	38
0	299	60.59515335465	39
0	307	61.615804359393	40
0	333	63.488455016941	41
0	337	65.163302362042	42
0	343	66.880162041944	43
0	347	68.045120913379	44
0	355	69.810446165811	45
0	361	70.856060801848	46
0	363	71.919099094422	47
0	371	73.474748331664	48
0	393	74.987141797162	49
0	395	76.849451577832	50
0	409	78.629878226976	51
0	411	80.610577900504	52
0	419	82.016698387993	53
0	429	83.349843544263	54
0	435	84.883309220505	55
0	453	86.56072104497	56
0	459	88.002736364334	57
0	469	89.512078430113	58
0	475	90.581937447498	59
0	481	92.361129418323	60
0	487	93.830627723672	61
0	493	95.47619796482	62
0	495	97.012375464273	63
0	499	98.693767976324	64
0	503	100.019452742842	65
0	507	101.148865080514	66
0	519	102.605776502361	67
0	525	104.3220206742	68
0	535	105.331787106191	69
0	541	106.907538263436	70
0	543	108.066952727345	71
0	547	109.695851166808	72
0	553	111.632597643957	73
0	567	112.9395836965	74
0	569	114.266284583211	75
0	579	115.49902871538	76
0	587	116.752219906385	77
0	589	118.742564912495	78
0	597	120.151619006722	79
0	607	121.464372299454	80
0	619	122.88846128651	81
0	629	124.121088277158	82
0	633	126.113099521334	83
0	639	127.602608843316	84
0	649	129.519335857668	85
0	651	131.314870604622	86
0	663	132.818804214085	87
0	681	134.759013907593	88
0	683	136.726808580179	89
0	707	138.273693476878	90
0	709	139.442269882029	91
0	723	141.343752872739	92
0	731	142.982780257314	93
0	739	144.693117085453	94
0	747	146.19582662995	95
0	759	147.405576581443	96
0	767	149.377659086446	97
0	785	150.887466278235	98
0	793	152.291891215444	99
0	799	154.21519727896	100
0	801	155.251231101184	101
0	813	156.426003108575	102
0	817	158.087120623869	103
0	831	159.448426300735	104
0	839	160.752872666419	105
0	841	162.723094470175	106
0	853	164.386960536549	107
0	861	165.754888116457	108
0	871	167.411907892516	109
0	881	169.349543114733	110
0	883	171.11481370342	111
0	893	172.136502426658	112
0	909	173.719906612607	113
0	915	174.810139594674	114
0	921	176.795072899973	115
0	927	178.27482677375	116
0	933	179.392142340383	117
0	935	181.063525823951	118
0	941	182.408243946107	119
0	945	183.840004071435	120
0	953	185.465362269972	121
0	963	186.870397880516	122
0	969	188.536075610277	123
0	977	189.537283182452	124
0	985	190.556406080099	125
0	987	192.09368510901	126
0	995	193.368260158999	127
0	997	194.73774985278	128
0	1003	195.792857132228	129
0	1005	197.125048020463	130
0	1013	198.837974874377	131
0	1015	200.765186685445	132
0	1023	201.794139237916	133
0	1031	203.553421685779	134
0	1039	204.685324933687	135
0	1041	205.918402765021	136
0	1065	207.503834836958	137
0	1075	208.751519855186	138
0	1081	210.696546630775	139
0	1089	212.48842619623	140
0	1093	214.209856304647	141
0	1105	215.703814137103	142
0	1109	217.485903512761	143
0	1117	219.363654299248	144
0	1123	220.366331367828	145
0	1131	221.373799684765	146
0	1141	223.328133497462	147
0	1149	225.202533416758	148
0	1153	226.928760603145	149
0	1155	227.929306574008	150
0	1157	229.354708304937	151
0	1161	230.418262084789	152
0	1165	231.633660290932	153
0	1169	232.792806529982	154
0	1175	234.456124448759	155
0	1177	236.370987540187	156
0	1181	237.420336486382	157
0	1185	238.838445695659	158
1	3	0.142870607559	0
1	11	1.721955202876	1
1	25	8.533930452189	2
1	29	9.909122508955	3
1	37	11.742229732326	4
1	43	13.383676256034	5
1	51	14.796886758525	6
1	61	16.120452010012	7
1	75	18.053684442384	8
1	81	19.664748187654	9
1	93	21.655928734301	10
1	97	22.866109140618	11
1	101	23.966065435585	12
1	109	25.920281323937	13
1	115	26.97738738246	14
1	119	28.653134631908	15
1	125	29.862496034737	16
1	139	31.782833007319	17
1	149	33.634363305998	18
1	161	35.012874435947	19
1	169	36.828580062739	20
1	179	40.034334306279	21
1	191	41.500416856868	22
1	201	43.104997969042	23
1	215	44.52043912782	24
1	225	46.027448317602	25
1	233	47.460097543391	26
1	237	48.813707223993	27
1	243	50.152612408298	28
1	253	51.317889856686	29
1	267	52.819915307556	30
1	279	54.033526521352	31
1	289	58.867831119626	32
1	301	60.619357189206	33
1	309	61.629000105942	34
1	335	63.501697008076	35
1	339	65.178345161375	36
1	345	66.891495448177	37
1	349	68.068930544336	38
1	357	69.822792724304	39
1	365	71.929191924666	40
1	373	73.493433988979	41
1	397	76.901470172094	42
1	413	80.628999263532	43
1	421	82.027544182911	44
1	431	83.363475966452	45
1	437	84.909938878312	46
1	455	86.589869467546	47
1	461	88.013639736775	48
1	471	89.522175784206	49
1	477	90.617861933586	50
1	483	92.392560415327	51
1	489	93.840987751969	52
1	497	97.025627172978	53
1	501	98.705358096492	54
1	505	100.038102123936	55
1	509	101.180239297418	56
1	521	102.616050923365	57
1	527	104.335706503596	58
1	537	105.358977799309	59
1	545	108.082034921886	60
1	549	109.711781982781	61
1	555	111.643873379695	62
1	571	114.285815808594	63
1	581	115.51043347255	64
1	591	118.754343680074	65
1	599	120.177805617386	66
1	609	121.482462096405	67
1	621	122.902746362552	68
1	631	124.133957368112	69
1	635	126.145311663166	70
1	641	127.613817157279	71
1	653	131.328383817437	72
1	665	132.842697799154	73
1	685	136.740021983208	74
1	711	139.456273697344	75
1	725	141.3617016011	76
1	733	142.992859410779	77
1	741	144.704785043034	78
1	749	146.207056255619	79
1	761	147.433523312583	80
1	769	149.391723215113	81
1	787	150.90533310939	82
1	795	152.319604748637	83
1	803	155.266159888868	84
1	815	156.441806004455	85
1	819	158.121311137811	86
1	833	159.520385401922	87
1	843	162.736563759007	88
1	855	164.403058158278	89
1	863	165.775452526399	90
1	873	167.433056561057	91
1	885	171.126290022252	92
1	895	172.174064557433	93
1	911	173.739560970604	94
1	917	174.84282928554	95
1	923	176.81217360343	96
1	929	178.287991047662	97
1	937	181.086035310558	98
1	943	182.427776805419	99
1	947	183.87453712985	100
1	955	185.480560489421	101
1	965	186.880698708471	102
1	971	188.573756610854	103
1	979	189.554584402655	104
1	989	192.103772387973	105
1	999	194.771963219244	106
1	1007	197.140615728577	107
1	1017	200.797790689919	108
1	1025	201.808673372099	109
1	1033	203.5656595735	110
1	1043	205.942139957668	111
1	1067	207.517665517629	112
1	1077	208.809666835183	113
1	1083	210.717807158752	114
1	1091	212.505021224231	115
1	1095	214.234914816078	116
1	1107	215.716651638128	117
1	1111	217.501559741971	118
1	1119	219.400464250145	119
1	1125	220.402559623047	120
1	1133	221.38813734666	121
1	1143	223.339326146162	122
1	1151	225.223867299361	123
1	1159	229.367043441997	124
1	1163	230.447805172506	125
1	1167	231.652967026498	126
1	1171	232.822079574955	127
1	1179	236.384453210278	128
1	1183	237.432235403957	129
1	1187	238.856340461607	130
2	5	0.163252200566	0
2	13	1.748677314879	1
2	39	11.766443379127	2
2	63	16.141441134688	3
2	67	16.164695682232	4
2	135	29.963289216487	5
2	143	31.814667305022	6
2	155	33.697018184361	7
2	171	36.841200635156	8
2	181	40.047760302526	9
2	185	40.083045834375	10
2	197	41.572311252925	11
2	217	44.550458992775	12
2	239	48.825938616074	13
2	245	50.166848979312	14
2	261	51.385283782623	15
2	269	52.858806063475	16
2	273	52.887402980979	17
2	297	58.954198442266	18
2	311	61.641053583629	19
2	319	61.695107130572	20
2	341	65.190369749012	21
2	351	68.081382525262	22
2	387	73.628078429375	23
2	443	84.976076110048	24
2	473	89.536809684481	25
2	491	93.859116735581	26
2	515	101.23700123141	27
2	539	105.417812789212	28
2	557	111.658845472558	29
2	583	115.521660622623	30
2	593	118.780795514345	31
2	611	121.504723418527	32
2	615	121.548290866628	33
2	645	127.641685659647	34
2	687	136.753015513237	35
2	691	136.81543070939	36
2	703	136.909339563902	37
2	753	146.241624112565	38
2	763	147.44369346882	39
2	777	149.468540078846	40
2	789	150.922319145059	41
2	797	152.330044020978	42
2	805	155.284433148104	43
2	809	155.315293708786	44
2	823	158.142345588031	45
2	827	158.187217382197	46
2	835	159.539481108971	47
2	845	162.747216694963	48
2	849	162.774257237592	49
2	875	167.480448045837	50
2	879	167.535985197906	51
2	889	171.155648707356	52
2	913	173.752325847445	53
2	919	174.859189790251	54
2	925	176.823226747622	55
2	939	181.100838228696	56
2	949	183.897495908015	57
2	959	185.518178170495	58
2	973	188.591183848351	59
2	981	189.57733291718	60
2	991	192.115330579834	61
2	1001	194.788058811052	62
2	1009	197.154914950604	63
2	1019	200.828858611178	64
2	1045	205.954107164554	65
2	1057	206.098610401919	66
2	1085	210.735547879179	67
2	1101	214.277063698103	68
2	1113	217.538939974924	69
2	1127	220.417298238837	70
2	1135	221.408752879823	71
2	1145	223.353212481824	72
3	7	0.176783791957	0
3	31	9.925311803551	1
3	47	13.425432504936	2
3	55	14.849771372041	3
3	65	16.153315395348	4
3	69	16.18405629783	5
3	77	18.066027457572	6
3	83	19.681027603464	7
3	87	19.711965798303	8
3	105	24.029684177296	9
3	121	28.67024711128	10
3	129	29.904804913388	11
3	133	29.945241242489	12
3	141	31.80126383764	13
3	153	33.668283585562	14
3	163	35.03157979421	15
3	183	40.071590094591	16
3	195	41.560788316672	17
3	205	43.133754864073	18
3	209	43.184678267173	19
3	219	44.568877802392	20
3	227	46.074547923521	21
3	247	50.186220366489	22
3	255	51.330606537389	23
3	259	51.361387011985	24
3	271	52.87482285334	25
3	291	58.885522317637	26
3	295	58.920509260558	27
3	303	60.638232208491	28
3	313	61.657144029756	29
3	317	61.682177615987	30
3	321	61.736678085986	31
3	325	61.75860680985	32
3	329	61.785712771058	33
3	367	71.954570211811	34
3	377	73.536813712927	35
3	381	73.566227504076	36
3	385	73.614610896337	37
3	389	73.640239391541	38
3	401	76.93148958586	39
3	405	76.956497801986	40
3	415	80.671398893201	41
3	425	82.063891759667	42
3	433	83.374304589181	43
3	441	84.953091653692	44
3	445	84.98903512878	45
3	449	85.016297822825	46
3	465	88.064371054823	47
3	513	101.221444642278	48
3	523	102.628795558585	49
3	531	104.382206529075	50
3	559	111.670893995229	51
3	563	111.699627948476	52
3	575	114.316466521491	53
3	603	120.212136710435	54
3	613	121.520649992706	55
3	625	122.96044865489	56
3	637	126.167016020466	57
3	643	127.626997702731	58
3	655	131.356659080115	59
3	659	131.418642350839	60
3	667	132.854309224942	61
3	671	132.887351477226	62
3	675	132.920914221883	63
3	679	132.982433768723	64
3	689	136.768236626281	65
3	693	136.831508557031	66
3	697	136.858816330689	67
3	701	136.889514280475	68
3	715	139.484525197984	69
3	719	139.544886807497	70
3	727	141.379547168069	71
3	737	143.038632507791	72
3	743	144.718979836269	73
3	751	146.220478002535	74
3	755	146.256548526329	75
3	771	149.426922102051	76
3	775	149.457587234017	77
3	779	149.496074560029	78
3	783	149.547049024827	79
3	807	155.296182250705	80
3	811	155.349139862218	81
3	821	158.131715353588	82
3	825	158.154383441853	83
3	847	162.760916486761	84
3	857	164.418710711091	85
3	867	165.806599318971	86
3	877	167.521898021364	87
3	887	171.143671389677	88
3	899	172.235603269924	89
3	903	172.272386403542	90
3	907	172.31429160136	91
3	957	185.503075578991	92
3	967	186.891789027107	93
3	1027	201.828955425282	94
3	1037	203.587933974677	95
3	1047	205.965971660896	96
3	1051	206.016713681315	97
3	1055	206.061900152184	98
3	1059	206.136196015148	99
3	1063	206.182734516687	100
3	1071	207.553865162775	101
3	1099	214.266241072448	102
3	1121	219.417068989088	103
3	1137	221.423175591713	104
3	1173	232.848789440707	105
3	1191	238.906293729051	106
4	15	1.767071643408	0
4	33	9.946671192968	1
4	57	14.864226556992	2
4	71	16.202500575765	3
4	89	19.725781356737	4
4	145	31.827527514747	5
4	157	33.708253450835	6
4	165	35.075223498741	7
4	173	36.856714595057	8
4	187	40.094015061921	9
4	211	43.214937355344	10
4	221	44.590832188055	11
4	229	46.087171216613	12
4	263	51.399022647582	13
4	275	52.898294523879	14
4	305	60.655565885223	15
4	331	61.815653163071	16
4	353	68.099416442889	17
4	391	73.650372643989	18
4	407	76.973658255166	19
4	417	80.686698508994	20
4	451	85.032388467378	21
4	467	88.077374305626	22
4	517	101.259028369248	23
4	533	104.393232048005	24
4	577	114.326796561342	25
4	585	115.534466381885	26
4	595	118.836273752864	27
4	605	120.248293119759	28
4	617	121.563358098767	29
4	627	122.993185726557	30
4	647	127.665500250445	31
4	661	131.436594572852	32
4	705	136.94513069521	33
4	721	139.557179979213	34
4	729	141.408947650168	35
4	745	144.729065316455	36
4	757	146.276966970977	37
4	765	147.459503555375	38
4	791	150.940130832959	39
4	829	158.209777338185	40
4	837	159.554233203359	41
4	851	162.806389509907	42
4	859	164.430142943806	43
4	869	165.820936313675	44
4	891	171.166896638279	45
4	951	183.911297098328	46
4	961	185.537500037901	47
4	975	188.649559722842	48
4	983	189.589854313944	49
4	993	192.126009138614	50
4	1011	197.170394074981	51
4	1021	200.840999433125	52
4	1029	201.843495339749	53
4	1073	207.572347830873	54
4	1087	210.747363671356	55
4	1103	214.288144158772	56
4	1115	217.586188718665	57
4	1129	220.436363251609	58
4	1139	221.439279927143	59
4	1147	223.368371299049	60
4	1193	238.920969969824	61
5	16	1.777071643408	0
5	34	9.956671192968	1
5	58	14.874226556992	2
5	72	16.212500575765	3
5	90	19.735781356737	4
5	146	31.837527514747	5
5	158	33.718253450835	6
5	166	35.085223498741	7
5	174	36.866714595057	8
5	188	40.104015061921	9
5	222	44.600832188055	10
5	230	46.097171216613	11
5	264	51.409022647582	12
5	354	68.109416442889	13
5	392	73.660372643989	14
5	408	76.983658255166	15
5	418	80.696698508994	16
5	452	85.042388467378	17
5	468	88.087374305626	18
5	518	101.269028369248	19
5	534	104.403232048005	20
5	578	114.336796561342	21
5	586	115.544466381885	22
5	606	120.258293119759	23
5	618	121.573358098767	24
5	648	127.675500250445	25
5	662	131.446594572852	26
5	706	136.95513069521	27
5	722	139.567179979213	28
5	730	141.418947650168	29
5	746	144.739065316455	30
5	758	146.286966970977	31
5	766	147.469503555375	32
5	830	158.219777338185	33
5	838	159.564233203359	34
5	852	162.816389509907	35
5	870	165.830936313675	36
5	952	183.921297098328	37
5	962	185.547500037901	38
5	976	188.659559722842	39
5	994	192.136009138614	40
5	1012	197.180394074981	41
5	1022	200.850999433125	42
5	1030	201.853495339749	43
5	1074	207.582347830873	44
5	1088	210.757363671356	45
5	1116	217.596188718665	46
5	1130	220.446363251609	47
5	1148	223.378371299049	48
5	1194	238.930969969824	49
6	45	13.40702915788	0
6	53	14.816482238299	1
6	85	19.700796244205	2
6	103	24.01368470843	3
6	111	25.933793084831	4
6	127	29.876331636878	5
6	131	29.933217738103	6
6	151	33.646887505927	7
6	193	41.545142211661	8
6	203	43.122698737637	9
6	207	43.156280939322	10
6	249	50.196543934535	11
6	257	51.343716215439	12
6	281	54.048270684255	13
6	293	58.908064350338	14
6	315	61.669571214693	15
6	323	61.746938063438	16
6	327	61.77329357461	17
6	359	69.835548003674	18
6	369	71.973399017261	19
6	375	73.524349554705	20
6	379	73.549449484055	21
6	383	73.592282091707	22
6	399	76.918349606879	23
6	403	76.942961836233	24
6	423	82.052470504553	25
6	427	82.086823238255	26
6	439	84.92539545546	27
6	447	84.999604794105	28
6	457	86.604648647421	29
6	463	88.035579870481	30
6	479	90.643946112077	31
6	485	92.407914458838	32
6	511	101.206352617409	33
6	529	104.352706759957	34
6	551	109.740689274325	35
6	561	111.688578621003	36
6	565	111.710593361266	37
6	573	114.295973099832	38
6	601	120.199312243315	39
6	623	122.915720097831	40
6	657	131.380068097361	41
6	669	132.876616413452	42
6	673	132.899004407349	43
6	677	132.940180607886	44
6	695	136.841766837475	45
6	699	136.872070497861	46
6	713	139.46737885611	47
6	717	139.505935631327	48
6	735	143.003107742856	49
6	773	149.442756703774	50
6	781	149.515837480259	51
6	865	165.796216430993	52
6	897	172.184603926997	53
6	901	172.260786961408	54
6	905	172.284482048399	55
6	931	178.300673278595	56
6	1035	203.576685366099	57
6	1049	205.997333600159	58
6	1053	206.033799042069	59
6	1061	206.167184199434	60
6	1069	207.537984724658	61
6	1079	208.842237706599	62
6	1097	214.250674045807	63
6	1189	238.887735236837	64

