version 2
run General-4-20230921-23:16:53-8867
attr configname General
attr datetime 20230921-23:16:53
attr experiment General
attr inifile omnetpp.ini
attr iterationvars ""
attr iterationvarsf ""
attr measurement ""
attr network Network2
attr processid 8867
attr repetition 4
attr replication #4
attr resultdir results
attr runnumber 4
attr seedset 4
param Network2.node[*].transmissionTime "uniform(1s, 2s)"
param Network2.node[*].delayTime "uniform(0.01s, 0.2s)"
param Network2.node[*].processingTime exponential(0.01s)
param Network2.node[*].lossProbability 0.2

vector 0 Network2.node[0] txVector ETV
vector 1 Network2.node[1] txVector ETV
vector 2 Network2.node[3] txVector ETV
vector 3 Network2.node[2] txVector ETV
vector 4 Network2.node[4] txVector ETV
vector 5 Network2.node[5] rxVector ETV
vector 6 Network2.node[6] txVector ETV
0	1	0.193735669288	0
0	9	2.094357123985	1
0	15	4.070631578718	2
0	23	5.268316650451	3
0	29	6.654887932506	4
0	31	8.603865239457	5
0	45	10.390171223706	6
0	47	11.498364610285	7
0	59	12.656588017861	8
0	69	13.835561925931	9
0	75	15.731063087624	10
0	77	17.228857208429	11
0	89	18.411302609522	12
0	95	20.258024881281	13
0	103	21.338004121244	14
0	111	22.403071929155	15
0	125	23.451606068913	16
0	135	25.118533838926	17
0	139	26.737463762205	18
0	141	28.149935975125	19
0	143	29.568970015658	20
0	145	31.471391874518	21
0	147	33.451008137701	22
0	157	35.074576976396	23
0	159	36.686398795493	24
0	167	37.810413416628	25
0	175	38.900555139095	26
0	177	40.873833136553	27
0	187	41.913924258122	28
0	193	43.355264961872	29
0	203	45.286679229386	30
0	205	47.184771007079	31
0	211	48.323952806567	32
0	213	49.640229312389	33
0	217	51.394084762235	34
0	227	52.482857622824	35
0	237	54.323323688389	36
0	239	56.051052359783	37
0	247	57.740837653785	38
0	253	58.892723256408	39
0	257	59.986803898972	40
0	265	61.524585568497	41
0	271	62.826952919282	42
0	279	64.012162153993	43
0	297	65.9838654752	44
0	301	67.355699186364	45
0	311	68.463690379552	46
0	319	70.104251298971	47
0	329	71.216125615324	48
0	335	72.278692521072	49
0	343	73.682502781191	50
0	349	75.634171373361	51
0	365	77.218447023222	52
0	367	79.083541479345	53
0	369	80.813756810652	54
0	387	82.410260087496	55
0	393	83.651288918604	56
0	401	85.290152027191	57
0	403	87.255580624718	58
0	407	88.822060658982	59
0	411	90.141485850014	60
0	413	91.702518414393	61
0	415	93.27434310798	62
0	427	94.425832356945	63
0	447	95.698928537	64
0	449	97.134204847425	65
0	451	98.206372267253	66
0	453	99.738600791584	67
0	455	101.677429702052	68
0	463	102.982245410712	69
0	477	104.726214900067	70
0	481	106.066581061961	71
0	493	107.76363250093	72
0	495	109.21444023509	73
0	505	110.288422679216	74
0	515	111.913563869814	75
0	543	113.220509083629	76
0	553	114.755613353256	77
0	555	116.696710867727	78
0	559	118.037163491979	79
0	561	119.602020597238	80
0	567	120.721165493516	81
0	579	122.381023742877	82
0	587	124.061712777861	83
0	589	125.974012500294	84
0	599	127.245805915133	85
0	601	128.724156445512	86
0	603	129.806979973722	87
0	611	131.770729415506	88
0	617	133.593042357746	89
0	625	135.087912075841	90
0	629	136.744922125633	91
0	639	137.920935607902	92
0	641	139.008265523394	93
0	651	140.77996362994	94
0	667	142.210510138809	95
0	671	143.43276086465	96
0	683	144.720883674841	97
0	699	146.652494775053	98
0	707	148.178922921108	99
0	721	149.993284659848	100
0	729	151.408002405582	101
0	731	152.651381712561	102
0	737	154.426306349612	103
0	739	155.920573041462	104
0	749	157.647654839013	105
0	751	159.280694909081	106
0	753	160.294590914542	107
0	755	162.282777334949	108
0	761	163.499118709158	109
0	763	164.836869649043	110
0	775	166.456519997133	111
0	777	167.961432334188	112
0	781	169.323981527857	113
0	785	171.217329490151	114
0	789	172.247901254719	115
0	799	174.167551469676	116
0	805	175.804602538155	117
0	815	176.950914144203	118
0	817	178.015536448838	119
0	819	179.055734295551	120
0	825	180.133293463769	121
0	827	181.742557014492	122
0	835	182.863817549464	123
0	837	184.846606354848	124
0	839	186.026451532184	125
0	857	187.508211960238	126
0	867	189.085076756696	127
0	877	190.14226947647	128
0	885	191.446535721342	129
0	887	192.60069333591	130
0	891	194.495836949828	131
0	893	196.143929819497	132
0	895	197.168996106288	133
0	903	198.395858386685	134
0	913	199.517771981577	135
0	921	201.098940167031	136
0	931	202.771387356953	137
0	945	203.99662264708	138
0	949	205.329891120703	139
0	951	206.855741774119	140
0	959	208.585213219435	141
0	961	210.074673726843	142
0	969	211.933515918362	143
0	975	213.060020897691	144
0	981	214.202994807544	145
0	983	215.220843268246	146
0	985	216.652469736212	147
0	989	218.495870081629	148
0	999	219.915773203518	149
0	1007	221.191684520725	150
0	1017	222.468341565845	151
0	1029	224.376115718312	152
0	1033	225.658930755142	153
0	1041	227.023560108539	154
0	1043	228.294756947007	155
0	1047	230.07084332585	156
0	1055	231.143213225684	157
0	1057	233.124474217106	158
0	1059	234.307261352582	159
0	1063	236.153205679651	160
0	1067	237.360103929337	161
0	1081	238.475272689635	162
1	3	0.205631491707	0
1	11	2.104419621445	1
1	17	4.100508828483	2
1	25	5.278768298451	3
1	33	8.633986006923	4
1	49	11.516243643808	5
1	61	12.671297270688	6
1	71	13.850069483976	7
1	79	17.26391439027	8
1	91	18.434524211674	9
1	97	20.268481633686	10
1	105	21.355771033959	11
1	113	22.414235223923	12
1	127	23.463216291073	13
1	137	25.134274445135	14
1	149	33.461876623791	15
1	161	36.710650375295	16
1	169	37.82258633258	17
1	179	40.883994138466	18
1	189	41.927105278643	19
1	195	43.39273710915	20
1	207	47.207847857155	21
1	215	49.65350369125	22
1	219	51.421770150803	23
1	229	52.496837387136	24
1	241	56.067060240426	25
1	249	57.753342556205	26
1	255	58.905812958068	27
1	259	60.025959864664	28
1	267	61.540887902123	29
1	273	62.842195106218	30
1	281	64.022611317101	31
1	299	66.024704356895	32
1	303	67.36664880474	33
1	313	68.474750100254	34
1	321	70.122242493914	35
1	331	71.228307478828	36
1	337	72.297071221403	37
1	345	73.703373223731	38
1	351	75.644348265395	39
1	371	80.840639803269	40
1	389	82.427011905981	41
1	395	83.666877791297	42
1	405	87.293795452554	43
1	409	88.845153732639	44
1	417	93.288836997638	45
1	429	94.440945142522	46
1	457	101.688086158714	47
1	465	102.999409495145	48
1	479	104.737025603798	49
1	483	106.107606653372	50
1	497	109.230973498139	51
1	507	110.317607711131	52
1	517	111.939194392432	53
1	545	113.263029222408	54
1	557	116.710632728205	55
1	563	119.612223252708	56
1	569	120.73969353382	57
1	581	122.398781460852	58
1	591	125.99415297236	59
1	605	129.835010154723	60
1	613	131.801538035256	61
1	619	133.617481255566	62
1	627	135.112850540519	63
1	631	136.76647169345	64
1	643	139.033140256534	65
1	653	140.794860892459	66
1	669	142.232084608204	67
1	673	143.447445382712	68
1	685	144.771547844187	69
1	701	146.663069041412	70
1	709	148.189822355658	71
1	723	150.014520291176	72
1	733	152.667336113597	73
1	741	155.937333299757	74
1	757	162.297679374791	75
1	765	164.852962184476	76
1	779	167.975599579864	77
1	783	169.366104622896	78
1	787	171.230057354515	79
1	791	172.267795070003	80
1	801	174.178740192611	81
1	807	175.834441751747	82
1	821	179.103899686249	83
1	829	181.757480155765	84
1	841	186.051924018533	85
1	859	187.518388458082	86
1	869	189.095222485671	87
1	879	190.19886172099	88
1	889	192.621687864574	89
1	897	197.186631792674	90
1	905	198.41360241632	91
1	915	199.528576011322	92
1	923	201.12280961102	93
1	933	202.782878748521	94
1	947	204.021370654098	95
1	953	206.874708478668	96
1	963	210.092718862255	97
1	971	211.956168247783	98
1	977	213.085020847986	99
1	987	216.663944425344	100
1	991	218.507513972401	101
1	1001	219.935612123568	102
1	1009	221.213470154645	103
1	1019	222.485664622691	104
1	1031	224.388859647859	105
1	1035	225.673354878097	106
1	1045	228.309205778744	107
1	1049	230.086609536311	108
1	1061	234.327656561103	109
1	1065	236.172026592277	110
1	1069	237.377705879966	111
2	5	0.228177698444	0
2	13	2.124442550342	1
2	53	11.543370156184	2
2	67	12.713445391546	3
2	73	13.876724538084	4
2	99	20.280933356415	5
2	107	21.375304805084	6
2	121	22.515021181874	7
2	151	33.478861197795	8
2	183	40.927686344791	9
2	197	43.417948226289	10
2	223	51.461419792042	11
2	231	52.512325534494	12
2	243	56.098618963008	13
2	261	60.036882229969	14
2	275	62.881652559842	15
2	283	64.03576478375	16
2	315	68.498110329411	17
2	325	70.168923053907	18
2	339	72.308876394557	19
2	361	75.717493449313	20
2	391	82.444043889459	21
2	437	94.528107706503	22
2	441	94.572546294401	23
2	459	101.703158609824	24
2	485	106.120531757484	25
2	489	106.186686421573	26
2	509	110.336107619825	27
2	535	112.136662484968	28
2	539	112.181482429364	29
2	549	113.31756679028	30
2	593	126.004310806357	31
2	621	133.628767673053	32
2	635	136.817218854799	33
2	645	139.047933037942	34
2	655	140.810273223442	35
2	659	140.843426210386	36
2	663	140.870721234945	37
2	681	143.512861733304	38
2	689	144.79796641924	39
2	693	144.850955371043	40
2	703	146.675909844939	41
2	725	150.033080344448	42
2	743	155.971970504767	43
2	795	172.303191220309	44
2	803	174.189100276061	45
2	843	186.077650472996	46
2	851	186.132301043695	47
2	871	189.117939818898	48
2	881	190.223200192393	49
2	917	199.558329939874	50
2	927	201.149950105398	51
2	941	202.884860825741	52
2	955	206.885760354845	53
2	965	210.1124266071	54
2	1011	221.239750790396	55
2	1015	221.280627912917	56
2	1025	222.563614652078	57
2	1051	230.12903223353	58
3	7	0.247279696778	0
3	19	4.119775571459	1
3	37	8.656699230125	2
3	41	8.715841658626	3
3	51	11.528236944793	4
3	55	11.558076089155	5
3	65	12.700529700586	6
3	81	17.277707591455	7
3	85	17.30750579671	8
3	93	18.453579898791	9
3	101	20.29816393673	10
3	109	21.389874015592	11
3	115	22.442141737827	12
3	119	22.488406265727	13
3	131	23.504959542219	14
3	153	33.506349512055	15
3	163	36.734730025864	16
3	173	37.859595324723	17
3	181	40.90697195712	18
3	199	43.435200213731	19
3	209	47.264729915921	20
3	221	51.447265752378	21
3	233	52.547581239871	22
3	245	56.1389783452	23
3	251	57.766310523352	24
3	269	61.564641384735	25
3	285	64.050761114156	26
3	289	64.090957962236	27
3	293	64.122082470356	28
3	307	67.42275106638	29
3	323	70.140851812625	30
3	333	71.238745937456	31
3	341	72.319739684593	32
3	355	75.669671929976	33
3	359	75.706056222277	34
3	375	80.868044460052	35
3	379	80.915383317742	36
3	383	80.967020474065	37
3	397	83.695598351849	38
3	419	93.338178424874	39
3	423	93.367838000342	40
3	431	94.450958710436	41
3	435	94.494158236867	42
3	439	94.538382450409	43
3	443	94.582861641395	44
3	467	103.011176917447	45
3	471	103.084161165908	46
3	475	103.113240742743	47
3	487	106.176050321749	48
3	499	109.242187646728	49
3	503	109.271555903526	50
3	511	110.35461654539	51
3	521	111.980475335902	52
3	525	112.036350801503	53
3	529	112.098329470387	54
3	533	112.125810020838	55
3	537	112.164497505264	56
3	547	113.295746487451	57
3	573	120.768809864083	58
3	577	120.812930140517	59
3	583	122.419348244449	60
3	595	126.016320652772	61
3	609	129.891220049626	62
3	615	131.82381886738	63
3	633	136.798316367509	64
3	647	139.061934263992	65
3	657	140.823708629573	66
3	661	140.8600058999	67
3	675	143.468591470598	68
3	679	143.499495015954	69
3	687	144.785379780566	70
3	691	144.826634686958	71
3	695	144.896376022422	72
3	711	148.218276482995	73
3	715	148.296122849084	74
3	719	148.331658156097	75
3	735	152.704462315192	76
3	745	155.994091600898	77
3	759	162.315788108308	78
3	769	164.901642606911	79
3	773	164.936870097997	80
3	793	172.286501406112	81
3	797	172.325495115038	82
3	811	175.879309734457	83
3	833	181.781702546869	84
3	845	186.092406827458	85
3	849	186.117097957752	86
3	853	186.143481811228	87
3	863	187.54566883018	88
3	873	189.129426429065	89
3	899	197.19982601625	90
3	909	198.45187278037	91
3	925	201.139304919051	92
3	929	201.163594392055	93
3	935	202.81398203486	94
3	939	202.851211826621	95
3	967	210.124009292149	96
3	995	218.565729965228	97
3	1003	219.94932478422	98
3	1013	221.257060836913	99
3	1023	222.527882819036	100
3	1037	225.68870579429	101
3	1073	237.419396276454	102
3	1077	237.47581333919	103
4	21	4.14648592576	0
4	43	8.743875326816	1
4	87	17.321528117687	2
4	123	22.535532014188	3
4	133	23.518825224759	4
4	155	33.516388798095	5
4	185	40.960386735375	6
4	201	43.45794603071	7
4	225	51.530957580296	8
4	235	52.574060374242	9
4	263	60.05634489426	10
4	277	62.911360645996	11
4	295	64.133548407288	12
4	309	67.447000842039	13
4	317	68.518895315752	14
4	327	70.181560824146	15
4	363	75.73009144582	16
4	385	80.982287239752	17
4	399	83.733722720332	18
4	445	94.598170501927	19
4	461	101.737073809094	20
4	491	106.20403573623	21
4	513	110.368512379546	22
4	541	112.195393925226	23
4	551	113.336919149855	24
4	585	122.432741658573	25
4	623	133.642396637463	26
4	637	136.836030102852	27
4	649	139.074373377258	28
4	665	140.886841686042	29
4	705	146.708259018748	30
4	727	150.069462929573	31
4	813	175.895224440651	32
4	855	186.154384378442	33
4	865	187.557858703586	34
4	875	189.155746690096	35
4	883	190.283542584017	36
4	901	197.220310578064	37
4	911	198.468164856346	38
4	919	199.588291452235	39
4	943	202.898951023079	40
4	957	206.897244755543	41
4	1005	219.967347472554	42
4	1027	222.574381444212	43
4	1039	225.69977394003	44
4	1053	230.144019814833	45
4	1079	237.488067655422	46
5	22	4.15648592576	0
5	44	8.753875326816	1
5	88	17.331528117687	2
5	124	22.545532014188	3
5	134	23.528825224759	4
5	156	33.526388798095	5
5	186	40.970386735375	6
5	202	43.46794603071	7
5	226	51.540957580296	8
5	264	60.06634489426	9
5	296	64.143548407288	10
5	310	67.457000842039	11
5	364	75.74009144582	12
5	386	80.992287239752	13
5	400	83.743722720332	14
5	446	94.608170501927	15
5	462	101.747073809094	16
5	492	106.21403573623	17
5	514	110.378512379546	18
5	552	113.346919149855	19
5	586	122.442741658573	20
5	624	133.652396637463	21
5	638	136.846030102852	22
5	650	139.084373377258	23
5	666	140.896841686042	24
5	706	146.718259018748	25
5	728	150.079462929573	26
5	814	175.905224440651	27
5	856	186.164384378442	28
5	876	189.165746690096	29
5	884	190.293542584017	30
5	912	198.478164856346	31
5	920	199.598291452235	32
5	944	202.908951023079	33
5	958	206.907244755543	34
5	1006	219.977347472554	35
5	1028	222.584381444212	36
5	1040	225.70977394003	37
5	1054	230.154019814833	38
5	1080	237.498067655422	39
6	27	5.305431667584	0
6	35	8.644765066534	1
6	39	8.679918544882	2
6	57	11.570599656991	3
6	63	12.687603697073	4
6	83	17.293099436182	5
6	117	22.460619683104	6
6	129	23.493298662816	7
6	165	36.773517967185	8
6	171	37.846983015953	9
6	191	41.937168718852	10
6	287	64.074852621616	11
6	291	64.109816411833	12
6	305	67.409285789499	13
6	347	73.720402368035	14
6	353	75.65783594373	15
6	357	75.695671462484	16
6	373	80.852235572075	17
6	377	80.900993047677	18
6	381	80.952495263487	19
6	421	93.351359075042	20
6	425	93.388136497958	21
6	433	94.476864105647	22
6	469	103.070782815772	23
6	473	103.097563808123	24
6	501	109.252404683885	25
6	519	111.965465117414	26
6	523	112.016129563108	27
6	527	112.051141485622	28
6	531	112.112032732757	29
6	565	119.623520213314	30
6	571	120.758166903178	31
6	575	120.78088862991	32
6	597	126.028779059548	33
6	607	129.867455742794	34
6	677	143.479802754576	35
6	697	144.922441758282	36
6	713	148.231422299841	37
6	717	148.30677092065	38
6	747	156.021115235071	39
6	767	164.882489413652	40
6	771	164.921164204584	41
6	809	175.857322269392	42
6	823	179.127851577958	43
6	831	181.769999731497	44
6	847	186.106242245777	45
6	861	187.532821729265	46
6	907	198.435651386637	47
6	937	202.839201130377	48
6	973	211.979237676294	49
6	979	213.096404203215	50
6	993	218.543157853345	51
6	997	218.583370890456	52
6	1021	222.503371713652	53
6	1071	237.404350546765	54
6	1075	237.454205005409	55

