version 2
run General-3-20230921-23:09:52-8355
attr configname General
attr datetime 20230921-23:09:52
attr experiment General
attr inifile omnetpp.ini
attr iterationvars ""
attr iterationvarsf ""
attr measurement ""
attr network Network1
attr processid 8355
attr repetition 3
attr replication #3
attr resultdir results
attr runnumber 3
attr seedset 3
param Network1.node[*].transmissionTime "uniform(1s, 2s)"
param Network1.node[*].delayTime "uniform(0.01s, 0.2s)"
param Network1.node[*].processingTime exponential(0.01s)
param Network1.node[*].lossProbability 0.0

vector 0 Network1.node[0] txVector ETV
vector 1 Network1.node[1] txVector ETV
vector 2 Network1.node[2] txVector ETV
vector 3 Network1.node[3] txVector ETV
vector 4 Network1.node[4] txVector ETV
vector 5 Network1.node[5] rxVector ETV
0	1	0.114651601831	0
0	15	1.185376482154	1
0	23	2.330746629578	2
0	31	3.354728512769	3
0	41	4.941348484788	4
0	49	6.659770509997	5
0	59	8.037764555379	6
0	67	9.506704800832	7
0	75	11.377776851482	8
0	83	12.891811905266	9
0	93	14.349144080491	10
0	107	15.870748417289	11
0	115	17.07771455294	12
0	125	18.207008416136	13
0	137	19.470895086485	14
0	149	21.256625420717	15
0	157	23.107596842875	16
0	171	24.376404171647	17
0	179	25.633610549686	18
0	191	27.285833674553	19
0	205	29.284116799082	20
0	215	30.36568784162	21
0	223	32.01526110021	22
0	261	33.986885395437	23
0	273	35.68739717647	24
0	285	37.203682928649	25
0	293	38.280179209379	26
0	303	39.896884496161	27
0	311	41.488410501112	28
0	323	42.518721858808	29
0	333	43.699462187779	30
0	341	45.337515069241	31
0	349	46.904581619729	32
0	357	48.406504963129	33
0	367	49.888351351558	34
0	377	50.930420871661	35
0	385	52.043864957592	36
0	399	53.867098515224	37
0	409	55.631252758274	38
0	421	57.604338185931	39
0	431	59.213365627755	40
0	443	60.790340522839	41
0	451	62.202771589229	42
0	459	63.419408857659	43
0	473	65.301842999947	44
0	481	66.80702746876	45
0	499	68.380448749125	46
0	509	69.501123818871	47
0	523	70.893595733051	48
0	531	72.238549198326	49
0	539	73.874206553282	50
0	547	75.262430751066	51
0	561	76.723324769943	52
0	569	78.287146519472	53
0	581	79.815151715952	54
0	597	81.575693612753	55
0	607	82.720590370775	56
0	633	84.226556648102	57
0	641	85.241271432557	58
0	651	86.537866852547	59
0	659	88.184379989349	60
0	671	89.988496093846	61
0	679	91.83720297769	62
0	689	93.431885722161	63
0	699	94.607386338127	64
0	709	96.094751997686	65
0	721	97.933257576379	66
0	731	99.672617496525	67
0	741	101.403208062121	68
0	749	103.342665946878	69
0	769	104.491622258046	70
0	797	105.846396527554	71
0	805	107.824658146429	72
0	813	109.634335044141	73
0	821	111.458464653066	74
0	829	112.858737177283	75
0	837	113.944249578121	76
0	845	115.616622764219	77
0	855	116.634275379192	78
0	865	117.902042561743	79
0	875	119.843895987209	80
0	885	121.134096303091	81
0	897	122.828889390754	82
0	905	124.450791623976	83
0	915	126.225238808032	84
0	925	127.350780592134	85
0	937	128.993060604503	86
0	947	130.945444630991	87
0	957	132.263407511005	88
0	969	133.771075895821	89
0	977	135.683780376167	90
0	985	137.133317177017	91
0	997	138.428255697778	92
0	1005	139.791033566529	93
0	1015	140.80957275263	94
0	1025	142.387620322937	95
0	1035	144.072406285973	96
0	1043	145.293226671936	97
0	1051	146.55519893772	98
0	1061	148.196567933141	99
0	1069	149.500399633377	100
0	1077	150.84898749699	101
0	1091	152.582001191863	102
0	1101	154.141664109259	103
0	1109	156.003084918085	104
0	1119	157.749084779128	105
0	1133	159.088783796478	106
0	1141	160.230470949851	107
0	1161	162.198827574795	108
0	1169	163.858649001757	109
0	1177	165.387376447043	110
0	1185	167.172310084405	111
0	1193	168.345691185512	112
0	1201	169.95607187303	113
0	1209	171.875531453707	114
0	1217	173.475263989365	115
0	1227	174.939457663635	116
0	1235	176.325634388088	117
0	1243	177.969982043442	118
0	1251	179.370866779073	119
0	1259	181.325192889732	120
0	1267	182.768598189645	121
0	1275	183.795790373415	122
0	1283	185.458082248757	123
0	1295	186.499244935645	124
0	1303	187.891567040069	125
0	1311	189.129516472409	126
0	1337	190.974605334292	127
0	1345	192.072704863104	128
0	1357	193.073100327349	129
0	1367	194.308211868929	130
0	1375	196.043358407051	131
0	1383	197.181687621467	132
0	1391	198.289600299971	133
0	1407	199.975235268075	134
0	1419	201.927512017844	135
0	1429	203.180182644466	136
0	1439	205.097919374306	137
0	1451	206.537022830986	138
0	1461	207.726414205807	139
0	1469	209.719780962051	140
0	1479	211.561807341243	141
0	1489	212.832745823146	142
0	1497	213.932070863036	143
0	1505	215.604424245724	144
0	1515	216.661182144725	145
0	1529	217.9112282261	146
0	1537	219.646461206091	147
0	1547	220.871944236405	148
0	1555	222.765309007674	149
0	1563	224.673995961504	150
0	1571	226.042893304558	151
0	1587	227.576235241558	152
0	1597	228.700465438258	153
0	1605	230.453757740161	154
0	1613	231.754694335232	155
0	1623	233.669333226117	156
0	1631	235.043103494984	157
0	1639	236.097301025479	158
0	1647	237.728140966105	159
0	1655	239.042435756721	160
1	3	0.14297423212	0
1	17	1.201412697316	1
1	25	2.348930425434	2
1	33	3.367943247106	3
1	43	4.951556784257	4
1	51	6.67073800928	5
1	61	8.050901196802	6
1	69	9.533376941337	7
1	77	11.388689558022	8
1	85	12.918333388456	9
1	95	14.360682580116	10
1	109	15.906749273977	11
1	117	17.095772734945	12
1	127	18.243143867498	13
1	139	19.484227564101	14
1	151	21.274469153091	15
1	159	23.139391506263	16
1	173	24.389642675584	17
1	181	25.674948893318	18
1	193	27.343273079808	19
1	207	29.297793922958	20
1	217	30.37939792243	21
1	225	32.029845060524	22
1	263	34.015246339937	23
1	275	35.701993437339	24
1	287	37.221422004451	25
1	295	38.328848393668	26
1	305	39.908215488165	27
1	313	41.504601073196	28
1	325	42.542340975748	29
1	335	43.720108178629	30
1	343	45.356972105977	31
1	351	46.930725935024	32
1	359	48.429811417515	33
1	369	49.918521931757	34
1	379	50.947516837623	35
1	387	52.054097879014	36
1	401	53.879400694782	37
1	411	55.641836468867	38
1	423	57.621095250145	39
1	433	59.233882213623	40
1	445	60.834371579458	41
1	453	62.220033345485	42
1	461	63.439230716551	43
1	475	65.318632510622	44
1	483	66.830184175552	45
1	501	68.392589930331	46
1	511	69.579603970896	47
1	525	70.908616900846	48
1	533	72.254089217009	49
1	541	73.885860764188	50
1	549	75.277168449773	51
1	563	76.760006554317	52
1	571	78.30833547489	53
1	583	79.828959676894	54
1	599	81.596674159041	55
1	609	82.731220280696	56
1	635	84.25293226184	57
1	643	85.261370786816	58
1	653	86.548887814546	59
1	661	88.195284906965	60
1	673	90.001633057357	61
1	681	91.848577328588	62
1	691	93.444583456999	63
1	701	94.622857368385	64
1	711	96.105869618834	65
1	723	97.944347420068	66
1	733	99.684265002928	67
1	743	101.451902010723	68
1	751	103.36074734395	69
1	771	104.502949977646	70
1	799	105.857375385895	71
1	807	107.840149255426	72
1	815	109.6451491221	73
1	823	111.501908500631	74
1	831	112.870713014562	75
1	839	113.969530016848	76
1	847	115.636214640631	77
1	857	116.647329630322	78
1	867	117.918667871477	79
1	877	119.860051236984	80
1	887	121.150202451147	81
1	899	122.848201753393	82
1	907	124.479854178467	83
1	917	126.240625743158	84
1	927	127.366552456183	85
1	939	129.004285655917	86
1	949	130.973753559871	87
1	959	132.276388413544	88
1	971	133.784469936248	89
1	979	135.698249298005	90
1	987	137.15155632428	91
1	999	138.442147181553	92
1	1007	139.802932675832	93
1	1017	140.845656147168	94
1	1027	142.406032644309	95
1	1037	144.09772264828	96
1	1045	145.311079981197	97
1	1053	146.570541657531	98
1	1063	148.216928603248	99
1	1071	149.552466783194	100
1	1079	150.888997297547	101
1	1093	152.602017954773	102
1	1103	154.162347936689	103
1	1111	156.030602150962	104
1	1121	157.766424348513	105
1	1135	159.107629221501	106
1	1143	160.241298792742	107
1	1163	162.211162244098	108
1	1171	163.878305705417	109
1	1179	165.406395289791	110
1	1187	167.194839164177	111
1	1195	168.355937108317	112
1	1203	169.974301916024	113
1	1211	171.890795435991	114
1	1219	173.491074859289	115
1	1229	174.989511101229	116
1	1237	176.359793978705	117
1	1245	177.982191608066	118
1	1253	179.382647057846	119
1	1261	181.356642951019	120
1	1269	182.790394514509	121
1	1277	183.808629191865	122
1	1285	185.480956698302	123
1	1297	186.511764444162	124
1	1305	187.90248205655	125
1	1313	189.140498985369	126
1	1339	190.995303888463	127
1	1347	192.085131907891	128
1	1359	193.09668850366	129
1	1369	194.320453769122	130
1	1377	196.060814497728	131
1	1385	197.201455587344	132
1	1393	198.304050161536	133
1	1409	200.002383382293	134
1	1421	201.938285212114	135
1	1431	203.190856323752	136
1	1441	205.114868923235	137
1	1453	206.557401950365	138
1	1463	207.746695040585	139
1	1471	209.740728224864	140
1	1481	211.598273123963	141
1	1491	212.865315040533	142
1	1499	213.95354051417	143
1	1507	215.620911513807	144
1	1517	216.672149176989	145
1	1531	217.936467656798	146
1	1539	219.664084881801	147
1	1549	220.889987624049	148
1	1557	222.785178780239	149
1	1565	224.691921784268	150
1	1573	226.063888774437	151
1	1589	227.588569787136	152
1	1599	228.717876086628	153
1	1607	230.465295575801	154
1	1615	231.777338258822	155
1	1625	233.714178768472	156
1	1633	235.054049514654	157
1	1641	236.1107487092	158
1	1649	237.739052202062	159
1	1657	239.053606495178	160
2	5	0.160124635094	0
2	9	0.187212497332	1
2	19	1.214676750081	2
2	27	2.364078103312	3
2	35	3.385810114672	4
2	45	4.972715905329	5
2	53	6.696209144898	6
2	63	8.063174652086	7
2	79	11.404593667006	8
2	87	12.933011051696	9
2	99	14.387311415206	10
2	103	14.419334730002	11
2	121	17.128116828125	12
2	129	18.261613490712	13
2	133	18.29246404972	14
2	141	19.502276054452	15
2	145	19.55281416992	16
2	153	21.291451357695	17
2	161	23.15185032967	18
2	165	23.198334925524	19
2	185	25.703465061678	20
2	195	27.36504890457	21
2	199	27.39800806216	22
2	211	29.331779221967	23
2	229	32.069179029488	24
2	233	32.096886049316	25
2	237	32.140181148427	26
2	241	32.204385267645	27
2	245	32.240374320926	28
2	249	32.267241246142	29
2	253	32.317943622241	30
2	257	32.352964426547	31
2	267	34.049046350084	32
2	279	35.745865885989	33
2	297	38.343513475175	34
2	307	39.920999120225	35
2	317	41.541246651123	36
2	329	42.58719520868	37
2	337	43.733331637932	38
2	353	46.944217163111	39
2	363	48.47887137565	40
2	371	49.929639535703	41
2	381	50.957790877189	42
2	391	52.098582075947	43
2	395	52.132802062325	44
2	403	53.904951723494	45
2	413	55.653057379499	46
2	417	55.68966606258	47
2	427	57.684840383297	48
2	435	59.247760401408	49
2	439	59.290024368232	50
2	455	62.233004511156	51
2	465	63.478726960839	52
2	469	63.529210110552	53
2	487	66.861921366161	54
2	491	66.902642479976	55
2	495	66.952120830847	56
2	505	68.424441335527	57
2	515	69.623753101144	58
2	519	69.672456929765	59
2	535	72.267541356909	60
2	553	75.31504355969	61
2	557	75.360820310712	62
2	573	78.32128865726	63
2	577	78.378382875506	64
2	587	79.858357772	65
2	591	79.898966260848	66
2	603	81.617984884867	67
2	611	82.744356856304	68
2	615	82.777548289584	69
2	619	82.806458795503	70
2	623	82.841397556457	71
2	627	82.883700299882	72
2	637	84.283030563476	73
2	647	85.29806893608	74
2	665	88.225551946759	75
2	683	91.87184784034	76
2	695	93.474040999983	77
2	705	94.653945971295	78
2	715	96.14163025797	79
2	727	97.970300850431	80
2	737	99.718165298659	81
2	745	101.476282200759	82
2	755	103.402591427367	83
2	759	103.436297061158	84
2	763	103.502194790397	85
2	773	104.525305989079	86
2	777	104.553660966301	87
2	781	104.637529092468	88
2	785	104.662323469327	89
2	789	104.694497432402	90
2	793	104.726853027986	91
2	817	109.67032666138	92
2	825	111.515003572353	93
2	851	115.664977259272	94
2	861	116.698877384965	95
2	871	117.945493837539	96
2	881	119.904592949457	97
2	889	121.167909795611	98
2	893	121.199281927912	99
2	911	124.514786617412	100
2	919	126.251290409575	101
2	929	127.390504420837	102
2	933	127.465586190391	103
2	941	129.056758299678	104
2	953	131.025638210302	105
2	963	132.317762835861	106
2	973	133.794563077717	107
2	981	135.712236405867	108
2	989	137.165669998979	109
2	993	137.205592336516	110
2	1001	138.479087235283	111
2	1011	139.835110895382	112
2	1021	140.886688314798	113
2	1029	142.450039996123	114
2	1039	144.108654109683	115
2	1047	145.324577927168	116
2	1055	146.587185066837	117
2	1065	148.234045302083	118
2	1073	149.570182704368	119
2	1081	150.907185330718	120
2	1085	150.965969274356	121
2	1095	152.618894833113	122
2	1113	156.057776029605	123
2	1123	157.778121032315	124
2	1127	157.80673382437	125
2	1147	160.276262755031	126
2	1151	160.304197734625	127
2	1155	160.339617248789	128
2	1181	165.432303445929	129
2	1197	168.380303817125	130
2	1213	171.901025035603	131
2	1221	173.506343636084	132
2	1231	175.00256115077	133
2	1255	179.440251154536	134
2	1263	181.370749523499	135
2	1289	185.529038509558	136
2	1299	186.535156198927	137
2	1307	187.923497591596	138
2	1317	189.19300998778	139
2	1321	189.223249546577	140
2	1325	189.25308420791	141
2	1329	189.278453221462	142
2	1333	189.303293910563	143
2	1341	191.008506690783	144
2	1351	192.13522673469	145
2	1363	193.127950076043	146
2	1387	197.219553471989	147
2	1395	198.314664988851	148
2	1399	198.362048544596	149
2	1403	198.385119984178	150
2	1411	200.015037429756	151
2	1415	200.086781566665	152
2	1425	201.972036607519	153
2	1435	203.223316267504	154
2	1445	205.147702890031	155
2	1457	206.588623239469	156
2	1475	209.786604638721	157
2	1483	211.612647676614	158
2	1511	215.643954099853	159
2	1521	216.709978586036	160
2	1525	216.744558138852	161
2	1533	217.958806809348	162
2	1543	219.724330792711	163
2	1551	220.904784352199	164
2	1577	226.101282322061	165
2	1581	226.148901502959	166
2	1593	227.624148107509	167
2	1601	228.765203469792	168
2	1609	230.479782166037	169
2	1619	231.804936132776	170
2	1627	233.740652986736	171
2	1651	237.76232410526	172
2	1661	239.091381163101	173
3	7	0.175870491842	0
3	11	0.200061201643	1
3	37	3.412824041952	2
3	55	6.710696495286	3
3	71	9.549439704311	4
3	89	12.949730609927	5
3	97	14.373462213596	6
3	101	14.409071020567	7
3	111	15.91896791799	8
3	119	17.106671989847	9
3	131	18.278157370926	10
3	143	19.52987994843	11
3	163	23.16604221188	12
3	167	23.208731882	13
3	175	24.410173027403	14
3	183	25.692870411676	15
3	187	25.73313000975	16
3	197	27.387339469312	17
3	201	27.421807516529	18
3	209	29.320782329756	19
3	219	30.39106721125	20
3	227	32.041584394782	21
3	231	32.080298649003	22
3	235	32.109609863881	23
3	239	32.176561565389	24
3	243	32.227099072666	25
3	247	32.256236777675	26
3	251	32.29302850368	27
3	255	32.329060305976	28
3	265	34.025469775771	29
3	269	34.074313761865	30
3	277	35.712762655946	31
3	281	35.777428371355	32
3	289	37.232766706094	33
3	299	38.358590728043	34
3	315	41.515389213376	35
3	319	41.556739274138	36
3	327	42.561429243342	37
3	345	45.370921275419	38
3	361	48.449417622537	39
3	373	49.95077385881	40
3	389	52.064683417767	41
3	393	52.121874571287	42
3	405	53.928542546193	43
3	415	55.672033883999	44
3	425	57.634277122743	45
3	437	59.278052041066	46
3	447	60.845854374365	47
3	463	63.457277254348	48
3	467	63.516468060786	49
3	477	65.342134579674	50
3	485	66.84766874281	51
3	489	66.884580825331	52
3	493	66.913005574313	53
3	503	68.406785762326	54
3	513	69.611565781103	55
3	517	69.652798777266	56
3	527	70.922224584725	57
3	543	73.899257181972	58
3	551	75.292907448378	59
3	555	75.349523809306	60
3	565	76.777656004982	61
3	575	78.336807145801	62
3	585	79.846927809659	63
3	589	79.87988745376	64
3	593	79.915043785746	65
3	601	81.607697864237	66
3	613	82.76365088513	67
3	617	82.792005148295	68
3	621	82.823502837794	69
3	625	82.861169589771	70
3	629	82.927442812848	71
3	645	85.28672782255	72
3	655	86.578508497918	73
3	663	88.208817307414	74
3	667	88.244761983776	75
3	675	90.019976348327	76
3	685	91.886026937916	77
3	693	93.458496625074	78
3	703	94.635990468994	79
3	713	96.123673877397	80
3	717	96.15486650548	81
3	725	97.954528830168	82
3	735	99.697077995583	83
3	753	103.374049746672	84
3	757	103.423085982372	85
3	761	103.455583677885	86
3	765	103.535189745901	87
3	775	104.542116250803	88
3	779	104.588712047741	89
3	783	104.647605559001	90
3	787	104.678609546472	91
3	791	104.705975510766	92
3	801	105.867418023026	93
3	809	107.868790075994	94
3	833	112.909801371812	95
3	841	113.983657594181	96
3	849	115.654522289561	97
3	859	116.666721497255	98
3	869	117.932492172787	99
3	879	119.887115258464	100
3	891	121.182304953782	101
3	901	122.863715435443	102
3	909	124.502062225312	103
3	921	126.280659035018	104
3	931	127.447690535433	105
3	943	129.067943262323	106
3	951	130.998319940579	107
3	961	132.30004355624	108
3	965	132.337936618378	109
3	991	137.187390484389	110
3	1009	139.820745908672	111
3	1019	140.866088269759	112
3	1031	142.474780413986	113
3	1057	146.604267891053	114
3	1083	150.942925767133	115
3	1087	150.985701601327	116
3	1097	152.635976061688	117
3	1105	154.172936392291	118
3	1115	156.07735620404	119
3	1125	157.796548557598	120
3	1129	157.819394069969	121
3	1137	159.15325191445	122
3	1145	160.253601843064	123
3	1149	160.290694708972	124
3	1153	160.322627136833	125
3	1157	160.372334174369	126
3	1165	162.229925967717	127
3	1173	163.894478321149	128
3	1189	167.212944680451	129
3	1205	169.986973624731	130
3	1223	173.548386870894	131
3	1239	176.373454784946	132
3	1247	177.998270805415	133
3	1271	182.802243501826	134
3	1279	183.82740314891	135
3	1287	185.499513189469	136
3	1291	185.555182742077	137
3	1315	189.165439355332	138
3	1319	189.212707196473	139
3	1323	189.239367177753	140
3	1327	189.263508547157	141
3	1331	189.291472965662	142
3	1349	192.114025037573	143
3	1353	192.149972325867	144
3	1361	193.116032298921	145
3	1371	194.335396146214	146
3	1379	196.073146943441	147
3	1397	198.326304128142	148
3	1401	198.373884326568	149
3	1413	200.060800911437	150
3	1423	201.949617026825	151
3	1433	203.205635042316	152
3	1443	205.13035671642	153
3	1447	205.160630556705	154
3	1455	206.572035045067	155
3	1465	207.760725317037	156
3	1473	209.77318195992	157
3	1485	211.651704038781	158
3	1493	212.876890050296	159
3	1501	213.980161996558	160
3	1509	215.633182177694	161
3	1519	216.698436974203	162
3	1523	216.726449017587	163
3	1541	219.699733746327	164
3	1559	222.796599105093	165
3	1567	224.703961627554	166
3	1575	226.078587050726	167
3	1579	226.137828619288	168
3	1583	226.169195561418	169
3	1591	227.601381468459	170
3	1617	231.787782155407	171
3	1635	235.069756917605	172
3	1643	236.1248195964	173
3	1659	239.070506117611	174
4	13	0.215873858464	0
4	21	1.231462014369	1
4	29	2.377412223757	2
4	39	3.425333788181	3
4	47	4.999267017697	4
4	57	6.724491066677	5
4	65	8.092873990107	6
4	73	9.573735000727	7
4	81	11.426892955474	8
4	91	12.968235496245	9
4	105	14.435779988053	10
4	113	15.975325437306	11
4	123	17.142605523366	12
4	135	18.313261736299	13
4	147	19.594595404318	14
4	155	21.327753412921	15
4	169	23.22407840302	16
4	177	24.43820606452	17
4	189	25.750911851239	18
4	203	27.445319970714	19
4	213	29.343281256585	20
4	221	30.413232379447	21
4	259	32.397841516326	22
4	271	34.086012899515	23
4	283	35.791083038949	24
4	291	37.248500049699	25
4	301	38.371813580181	26
4	309	39.931127495636	27
4	321	41.571697954898	28
4	331	42.614057448706	29
4	339	43.745298344079	30
4	347	45.380964031098	31
4	355	46.965937905536	32
4	365	48.507468052709	33
4	375	49.970846226815	34
4	383	50.970279803648	35
4	397	52.148207386116	36
4	407	53.963777433928	37
4	419	55.718132944263	38
4	429	57.735471616227	39
4	441	59.311767333683	40
4	449	60.865743673722	41
4	457	62.249673677128	42
4	471	63.546919778982	43
4	479	65.352911221566	44
4	497	66.984323849711	45
4	507	68.465551503877	46
4	521	69.685034337154	47
4	529	70.934087760237	48
4	537	72.291011826863	49
4	545	73.931015333014	50
4	559	75.371700119917	51
4	567	76.788107183951	52
4	579	78.392889402968	53
4	595	79.93704789033	54
4	605	81.649941971299	55
4	631	82.94608840429	56
4	639	84.298633403367	57
4	649	85.325387546383	58
4	657	86.608100726616	59
4	669	88.264659053713	60
4	677	90.032827828039	61
4	687	91.897108100642	62
4	697	93.51248758844	63
4	707	94.669143888787	64
4	719	96.187994329492	65
4	729	97.982014020419	66
4	739	99.729422768561	67
4	747	101.499517562708	68
4	767	103.559554613842	69
4	795	104.737320943801	70
4	803	105.887447914953	71
4	811	107.882224480299	72
4	819	109.701254725818	73
4	827	111.532834240242	74
4	835	112.931410503222	75
4	843	114.001137011983	76
4	853	115.694367876251	77
4	863	116.715611059058	78
4	873	117.966771575695	79
4	883	119.921708387869	80
4	895	121.213676025746	81
4	903	122.879431232121	82
4	913	124.527374101267	83
4	923	126.292841665575	84
4	935	127.501819579164	85
4	945	129.085049477505	86
4	955	131.039883272229	87
4	967	132.35179360151	88
4	975	133.817200139486	89
4	983	135.739366241274	90
4	995	137.21765388813	91
4	1003	138.48996004142	92
4	1013	139.857040797223	93
4	1023	140.902965054245	94
4	1033	142.487954939703	95
4	1041	144.120471403389	96
4	1049	145.342680280548	97
4	1059	146.614767654165	98
4	1067	148.253244309756	99
4	1075	149.612720081153	100
4	1089	150.996377207459	101
4	1099	152.65172803481	102
4	1107	154.18473588787	103
4	1117	156.087887707059	104
4	1131	157.834837537728	105
4	1139	159.176602476465	106
4	1159	160.447672684332	107
4	1167	162.244837361603	108
4	1175	163.916068079751	109
4	1183	165.46525523134	110
4	1191	167.230284896977	111
4	1199	168.391971351807	112
4	1207	170.011524347816	113
4	1215	171.912012198687	114
4	1225	173.584334330697	115
4	1233	175.0167420515	116
4	1241	176.39564620623	117
4	1249	178.010633646255	118
4	1257	179.455688321099	119
4	1265	181.401979977193	120
4	1273	182.829096525311	121
4	1281	183.863185027269	122
4	1293	185.567496125132	123
4	1301	186.549600938748	124
4	1309	187.955425260416	125
4	1335	189.31875421011	126
4	1343	191.022350684221	127
4	1355	192.173835543719	128
4	1365	193.164328457947	129
4	1373	194.358572288223	130
4	1381	196.086050800308	131
4	1389	197.254344276181	132
4	1405	198.399669197795	133
4	1417	200.099532783042	134
4	1427	201.985857330987	135
4	1437	203.238821383029	136
4	1449	205.17351434628	137
4	1459	206.602868937011	138
4	1467	207.779588632256	139
4	1477	209.800290814225	140
4	1487	211.697480233258	141
4	1495	212.888314267203	142
4	1503	213.993774500676	143
4	1513	215.657072835593	144
4	1527	216.766834047231	145
4	1535	217.984611361763	146
4	1545	219.734574124038	147
4	1553	220.91583895069	148
4	1561	222.817641956119	149
4	1569	224.71414983688	150
4	1585	226.197677031726	151
4	1595	227.643771485225	152
4	1603	228.791241705898	153
4	1611	230.494756349155	154
4	1621	231.828803473839	155
4	1629	233.758850529932	156
4	1637	235.085636212176	157
4	1645	236.146411053895	158
4	1653	237.776848691212	159
4	1663	239.124115256749	160
5	14	0.225873858464	0
5	22	1.241462014369	1
5	30	2.387412223757	2
5	40	3.435333788181	3
5	48	5.009267017697	4
5	58	6.734491066677	5
5	66	8.102873990107	6
5	74	9.583735000727	7
5	82	11.436892955474	8
5	92	12.978235496245	9
5	106	14.445779988053	10
5	114	15.985325437306	11
5	124	17.152605523366	12
5	136	18.323261736299	13
5	148	19.604595404318	14
5	156	21.337753412921	15
5	170	23.23407840302	16
5	178	24.44820606452	17
5	190	25.760911851239	18
5	204	27.455319970714	19
5	214	29.353281256585	20
5	222	30.423232379447	21
5	260	32.407841516326	22
5	272	34.096012899515	23
5	284	35.801083038949	24
5	292	37.258500049699	25
5	302	38.381813580181	26
5	310	39.941127495636	27
5	322	41.581697954898	28
5	332	42.624057448706	29
5	340	43.755298344079	30
5	348	45.390964031098	31
5	356	46.975937905536	32
5	366	48.517468052709	33
5	376	49.980846226815	34
5	384	50.980279803648	35
5	398	52.158207386116	36
5	408	53.973777433928	37
5	420	55.728132944263	38
5	430	57.745471616227	39
5	442	59.321767333683	40
5	450	60.875743673722	41
5	458	62.259673677128	42
5	472	63.556919778982	43
5	480	65.362911221566	44
5	498	66.994323849711	45
5	508	68.475551503877	46
5	522	69.695034337154	47
5	530	70.944087760237	48
5	538	72.301011826863	49
5	546	73.941015333014	50
5	560	75.381700119917	51
5	568	76.798107183951	52
5	580	78.402889402968	53
5	596	79.94704789033	54
5	606	81.659941971299	55
5	632	82.95608840429	56
5	640	84.308633403367	57
5	650	85.335387546383	58
5	658	86.618100726616	59
5	670	88.274659053713	60
5	678	90.042827828039	61
5	688	91.907108100642	62
5	698	93.52248758844	63
5	708	94.679143888787	64
5	720	96.197994329492	65
5	730	97.992014020419	66
5	740	99.739422768561	67
5	748	101.509517562708	68
5	768	103.569554613842	69
5	796	104.747320943801	70
5	804	105.897447914953	71
5	812	107.892224480299	72
5	820	109.711254725818	73
5	828	111.542834240242	74
5	836	112.941410503222	75
5	844	114.011137011983	76
5	854	115.704367876251	77
5	864	116.725611059058	78
5	874	117.976771575695	79
5	884	119.931708387869	80
5	896	121.223676025746	81
5	904	122.889431232121	82
5	914	124.537374101267	83
5	924	126.302841665575	84
5	936	127.511819579164	85
5	946	129.095049477505	86
5	956	131.049883272229	87
5	968	132.36179360151	88
5	976	133.827200139486	89
5	984	135.749366241274	90
5	996	137.22765388813	91
5	1004	138.49996004142	92
5	1014	139.867040797223	93
5	1024	140.912965054245	94
5	1034	142.497954939703	95
5	1042	144.130471403389	96
5	1050	145.352680280548	97
5	1060	146.624767654165	98
5	1068	148.263244309756	99
5	1076	149.622720081153	100
5	1090	151.006377207459	101
5	1100	152.66172803481	102
5	1108	154.19473588787	103
5	1118	156.097887707059	104
5	1132	157.844837537728	105
5	1140	159.186602476465	106
5	1160	160.457672684332	107
5	1168	162.254837361603	108
5	1176	163.926068079751	109
5	1184	165.47525523134	110
5	1192	167.240284896977	111
5	1200	168.401971351807	112
5	1208	170.021524347816	113
5	1216	171.922012198687	114
5	1226	173.594334330697	115
5	1234	175.0267420515	116
5	1242	176.40564620623	117
5	1250	178.020633646255	118
5	1258	179.465688321099	119
5	1266	181.411979977193	120
5	1274	182.839096525311	121
5	1282	183.873185027269	122
5	1294	185.577496125132	123
5	1302	186.559600938748	124
5	1310	187.965425260416	125
5	1336	189.32875421011	126
5	1344	191.032350684221	127
5	1356	192.183835543719	128
5	1366	193.174328457947	129
5	1374	194.368572288223	130
5	1382	196.096050800308	131
5	1390	197.264344276181	132
5	1406	198.409669197795	133
5	1418	200.109532783042	134
5	1428	201.995857330987	135
5	1438	203.248821383029	136
5	1450	205.18351434628	137
5	1460	206.612868937011	138
5	1468	207.789588632256	139
5	1478	209.810290814225	140
5	1488	211.707480233258	141
5	1496	212.898314267203	142
5	1504	214.003774500676	143
5	1514	215.667072835593	144
5	1528	216.776834047231	145
5	1536	217.994611361763	146
5	1546	219.744574124038	147
5	1554	220.92583895069	148
5	1562	222.827641956119	149
5	1570	224.72414983688	150
5	1586	226.207677031726	151
5	1596	227.653771485225	152
5	1604	228.801241705898	153
5	1612	230.504756349155	154
5	1622	231.838803473839	155
5	1630	233.768850529932	156
5	1638	235.095636212176	157
5	1646	236.156411053895	158
5	1654	237.786848691212	159
5	1664	239.134115256749	160

