version 2
run General-2-20230921-23:09:52-8355
attr configname General
attr datetime 20230921-23:09:52
attr experiment General
attr inifile omnetpp.ini
attr iterationvars ""
attr iterationvarsf ""
attr measurement ""
attr network Network1
attr processid 8355
attr repetition 2
attr replication #2
attr resultdir results
attr runnumber 2
attr seedset 2
param Network1.node[*].transmissionTime "uniform(1s, 2s)"
param Network1.node[*].delayTime "uniform(0.01s, 0.2s)"
param Network1.node[*].processingTime exponential(0.01s)
param Network1.node[*].lossProbability 0.0

vector 0 Network1.node[0] txVector ETV
vector 1 Network1.node[1] txVector ETV
vector 2 Network1.node[2] txVector ETV
vector 3 Network1.node[3] txVector ETV
vector 4 Network1.node[4] txVector ETV
vector 5 Network1.node[5] rxVector ETV
0	1	0.092839031499	0
0	15	1.277921112972	1
0	27	3.096147835041	2
0	39	4.17579330599	3
0	49	5.943284482482	4
0	61	7.606346278005	5
0	69	8.947959934381	6
0	77	10.22213318783	7
0	91	11.628408235983	8
0	99	12.921431468354	9
0	111	14.438862229485	10
0	119	16.236267172985	11
0	127	18.003755431643	12
0	143	19.116531647297	13
0	151	20.691485184964	14
0	159	21.91232310191	15
0	169	23.84146300263	16
0	179	25.377916700693	17
0	191	26.59068407167	18
0	201	28.062093930107	19
0	209	29.223560496953	20
0	219	30.509829748676	21
0	227	32.420485265574	22
0	237	33.618512379725	23
0	245	35.066527094014	24
0	257	36.390210296514	25
0	267	37.722084007014	26
0	275	39.437831093811	27
0	283	41.279828777791	28
0	293	43.196543393678	29
0	303	44.759919503259	30
0	323	45.89131411074	31
0	331	47.865313476904	32
0	349	49.196060505251	33
0	357	50.888459748144	34
0	369	52.064104434357	35
0	379	53.493693050251	36
0	397	55.378956728403	37
0	409	57.20510754457	38
0	417	58.22782412872	39
0	427	59.691273386612	40
0	437	60.720422707054	41
0	445	61.84658281484	42
0	455	63.077128427591	43
0	465	64.781909187812	44
0	475	66.147175221726	45
0	485	67.942890495782	46
0	497	69.145251162837	47
0	505	70.756340462736	48
0	515	71.808234614807	49
0	523	73.287414941027	50
0	537	75.0732128015	51
0	549	76.3818217281	52
0	557	78.243798186325	53
0	565	79.840814730173	54
0	575	81.225723673377	55
0	583	82.7796499124	56
0	591	84.585985123899	57
0	603	85.674634434536	58
0	613	87.633148500949	59
0	623	89.196574536871	60
0	633	90.75354326728	61
0	641	92.31765107766	62
0	649	93.439688996665	63
0	659	95.065477611517	64
0	675	96.719089462442	65
0	687	98.527056174373	66
0	695	100.163619587684	67
0	703	101.414403444176	68
0	717	102.864028447095	69
0	727	104.705896078163	70
0	735	106.130102394867	71
0	743	107.844757635399	72
0	751	109.078021995976	73
0	759	110.654265695039	74
0	767	112.584002783077	75
0	775	113.62722367516	76
0	787	115.327421420973	77
0	797	117.271088760367	78
0	805	118.540300949032	79
0	817	119.690428849796	80
0	829	121.102246938061	81
0	837	122.847800195703	82
0	845	124.518553086577	83
0	857	126.334532634841	84
0	865	127.580620488405	85
0	877	128.633370323127	86
0	891	130.51258481133	87
0	903	132.016341094181	88
0	917	133.486113710349	89
0	931	135.284826333189	90
0	945	136.835371778367	91
0	953	138.448130698197	92
0	967	139.835135502063	93
0	975	141.487881318221	94
0	987	143.19275617066	95
0	1003	144.265255064025	96
0	1011	145.333942617077	97
0	1023	146.995003496317	98
0	1033	148.155215895755	99
0	1041	150.02524167441	100
0	1049	151.717713631011	101
0	1057	152.898104212267	102
0	1075	154.52740554304	103
0	1087	155.638251627117	104
0	1095	156.713751337278	105
0	1107	158.03883722962	106
0	1115	159.902431409127	107
0	1123	161.893923317102	108
0	1133	163.152455762048	109
0	1157	164.24148195332	110
0	1165	165.531129807719	111
0	1177	167.423045383087	112
0	1185	169.345835864563	113
0	1193	171.227130559059	114
0	1201	173.014228931647	115
0	1213	174.462572568348	116
0	1225	175.571926177033	117
0	1237	176.756430445957	118
0	1247	177.943051205502	119
0	1261	179.498074981171	120
0	1269	180.761478407095	121
0	1279	182.046663723207	122
0	1287	183.204858962699	123
0	1295	184.67188449788	124
0	1307	186.55379530836	125
0	1317	188.405072577317	126
0	1329	189.496632889398	127
0	1337	190.836068434893	128
0	1349	192.302705381318	129
0	1357	194.217042542315	130
0	1369	195.673288288546	131
0	1379	197.298508759608	132
0	1387	198.597442883785	133
0	1395	199.677387589143	134
0	1409	201.246799034552	135
0	1417	202.614315243923	136
0	1429	204.433919157852	137
0	1439	206.247356007826	138
0	1447	207.439066046868	139
0	1457	208.721701843217	140
0	1465	209.940861709202	141
0	1473	211.535178714218	142
0	1481	213.111777817849	143
0	1493	214.166173654161	144
0	1513	215.437196249161	145
0	1523	217.217266238779	146
0	1539	218.463462644508	147
0	1547	220.05503464818	148
0	1557	221.062589421887	149
0	1565	222.753645055713	150
0	1575	224.494300092589	151
0	1583	226.110619561765	152
0	1595	227.233716909792	153
0	1607	229.083329487843	154
0	1615	230.139740641713	155
0	1629	231.585882468168	156
0	1637	232.661893792702	157
0	1647	233.915950488551	158
0	1657	235.207117476985	159
0	1673	236.730442650169	160
0	1685	238.084321431834	161
0	1693	239.103707511229	162
1	3	0.129654214104	0
1	17	1.299410468089	1
1	29	3.113184782933	2
1	41	4.194404422625	3
1	51	5.962778555651	4
1	63	7.62471978265	5
1	71	8.973964735363	6
1	79	10.232408979831	7
1	93	11.645833015334	8
1	101	12.953013857207	9
1	113	14.45200096785	10
1	121	16.270856705328	11
1	129	18.017513405289	12
1	145	19.133010391749	13
1	153	20.726551634091	14
1	161	21.960324962844	15
1	171	23.855339037198	16
1	181	25.387917936611	17
1	193	26.608657973075	18
1	203	28.092507367247	19
1	211	29.250315310026	20
1	221	30.536948075618	21
1	229	32.451381514101	22
1	239	33.630832328749	23
1	247	35.0898206175	24
1	259	36.406777642074	25
1	269	37.73216884956	26
1	277	39.448154310201	27
1	285	41.301944266772	28
1	295	43.227463545755	29
1	305	44.774175620522	30
1	325	45.91542051437	31
1	333	47.87790909212	32
1	351	49.245426263858	33
1	359	50.901403649784	34
1	371	52.084371400685	35
1	381	53.544520195038	36
1	399	55.400803416545	37
1	411	57.215657283845	38
1	419	58.244543883508	39
1	429	59.705939765753	40
1	439	60.733316647971	41
1	447	61.88021918864	42
1	457	63.093077992956	43
1	467	64.805730818343	44
1	477	66.159114674362	45
1	487	67.975563135594	46
1	499	69.162657101201	47
1	507	70.776977009142	48
1	517	71.82946231559	49
1	525	73.303010553815	50
1	539	75.095702222783	51
1	551	76.394494788972	52
1	559	78.262303503868	53
1	567	79.869207178429	54
1	577	81.249383695955	55
1	585	82.789998678957	56
1	593	84.599165241661	57
1	605	85.693231404099	58
1	615	87.656646270415	59
1	625	89.214160323615	60
1	635	90.765874890734	61
1	643	92.348790132426	62
1	651	93.451384367161	63
1	661	95.096621002295	64
1	677	96.731879815041	65
1	689	98.539104840067	66
1	697	100.191317366304	67
1	705	101.436331172369	68
1	719	102.899800665548	69
1	729	104.734480975763	70
1	737	106.152773798091	71
1	745	107.857485773586	72
1	753	109.096375155443	73
1	761	110.670489037194	74
1	769	112.59473598783	75
1	777	113.654112292027	76
1	789	115.353052788325	77
1	799	117.285560360558	78
1	807	118.55618308932	79
1	819	119.702870238283	80
1	831	121.113113726891	81
1	839	122.860714542944	82
1	847	124.576743206199	83
1	859	126.346800276563	84
1	867	127.613240089301	85
1	879	128.657030388954	86
1	893	130.529540432908	87
1	905	132.027547346597	88
1	919	133.500321400691	89
1	933	135.296993590827	90
1	947	136.84851357494	91
1	955	138.476142161772	92
1	969	139.863294793373	93
1	977	141.50351546239	94
1	989	143.209691603015	95
1	1005	144.282037875991	96
1	1013	145.350939742863	97
1	1025	147.02173015379	98
1	1035	148.17220797896	99
1	1043	150.040951948877	100
1	1051	151.730141587989	101
1	1059	152.92086329106	102
1	1077	154.540209306399	103
1	1089	155.676769555728	104
1	1097	156.727176321243	105
1	1109	158.074649568648	106
1	1117	159.920514810225	107
1	1125	161.909833505924	108
1	1135	163.175071619006	109
1	1159	164.256600780822	110
1	1167	165.546209107731	111
1	1179	167.453263582974	112
1	1187	169.370775605908	113
1	1195	171.243200985847	114
1	1203	173.034234107696	115
1	1215	174.487389588183	116
1	1227	175.590161736014	117
1	1239	176.773000201066	118
1	1249	177.957619885742	119
1	1263	179.509416692969	120
1	1271	180.775412805848	121
1	1281	182.066834837105	122
1	1289	183.220207855488	123
1	1297	184.683639400992	124
1	1309	186.578024057807	125
1	1319	188.425779732321	126
1	1331	189.508350424757	127
1	1339	190.856027224824	128
1	1351	192.329663832329	129
1	1359	194.236336531881	130
1	1371	195.685658440644	131
1	1381	197.311581019055	132
1	1389	198.609642847986	133
1	1397	199.689388398651	134
1	1411	201.267166511621	135
1	1419	202.627113284427	136
1	1431	204.484940088809	137
1	1441	206.303809400873	138
1	1449	207.487285244544	139
1	1459	208.743141558041	140
1	1467	209.950938842738	141
1	1475	211.589592792957	142
1	1483	213.122752077115	143
1	1495	214.196035942949	144
1	1515	215.44738337407	145
1	1525	217.22956547884	146
1	1541	218.506147578421	147
1	1549	220.096311022768	148
1	1559	221.087087989354	149
1	1567	222.768251202048	150
1	1577	224.545317607277	151
1	1585	226.123851344528	152
1	1597	227.297697805217	153
1	1609	229.109583077002	154
1	1617	230.170593445743	155
1	1631	231.609382014232	156
1	1639	232.691277483872	157
1	1649	233.928462003435	158
1	1659	235.217643960659	159
1	1675	236.758936367365	160
1	1687	238.095471650497	161
1	1695	239.125321092284	162
2	5	0.145369217285	0
2	9	0.171523446922	1
2	21	1.339338140843	2
2	31	3.126579714361	3
2	35	3.154412762674	4
2	45	4.22703533392	5
2	53	5.981453660921	6
2	57	6.036458605099	7
2	65	7.6512837826	8
2	73	8.984821348296	9
2	83	10.308973485441	10
2	87	10.34517382323	11
2	105	12.981029111612	12
2	115	14.483062954362	13
2	133	18.058641878305	14
2	137	18.091571360923	15
2	165	22.002899603325	16
2	175	23.914890352772	17
2	185	25.418649116257	18
2	197	26.632380875808	19
2	213	29.272510490104	20
2	223	30.54739283293	21
2	233	32.474838288652	22
2	249	35.105803118898	23
2	253	35.140913793629	24
2	263	36.453830290294	25
2	279	39.46307000208	26
2	289	41.329220983405	27
2	299	43.288783948188	28
2	309	44.810920079458	29
2	313	44.850571376709	30
2	317	44.887632905309	31
2	327	45.938139018184	32
2	335	47.889540006166	33
2	339	47.937284776112	34
2	343	47.982148223677	35
2	353	49.25795073389	36
2	361	50.912747897836	37
2	365	50.939567509316	38
2	373	52.113454711558	39
2	383	53.561829205387	40
2	387	53.595769875483	41
2	391	53.624054733497	42
2	401	55.415958363917	43
2	405	55.477205118495	44
2	413	57.248022091706	45
2	421	58.266283495399	46
2	431	59.722362270632	47
2	441	60.748644236044	48
2	451	61.937082905166	49
2	461	63.145713223633	50
2	469	64.819961712877	51
2	481	66.206811285122	52
2	491	68.007375150321	53
2	511	70.827004960493	54
2	519	71.843120404823	55
2	527	73.315646010901	56
2	531	73.349096616812	57
2	541	75.110757388254	58
2	545	75.139968454096	59
2	571	79.903183619781	60
2	597	84.652973187118	61
2	609	85.743227612631	62
2	619	87.722953506171	63
2	629	89.275323244309	64
2	645	92.364483676549	65
2	655	93.527746148407	66
2	663	95.123925853169	67
2	667	95.174523263982	68
2	671	95.199400141497	69
2	681	96.786963729463	70
2	691	98.550537833881	71
2	699	100.216056737085	72
2	709	101.473448935673	73
2	713	101.49804905378	74
2	721	102.92520919379	75
2	731	104.752267331423	76
2	739	106.166425437494	77
2	763	110.684192777261	78
2	771	112.609801175769	79
2	779	113.671864938749	80
2	783	113.697910314863	81
2	793	115.396977026283	82
2	811	118.596298443619	83
2	823	119.731798030944	84
2	833	121.143882074286	85
2	841	122.876919787291	86
2	849	124.620859317587	87
2	853	124.659603085443	88
2	871	127.675063827827	89
2	881	128.675675622388	90
2	885	128.704072955653	91
2	895	130.541750049464	92
2	899	130.577358806381	93
2	907	132.050166668195	94
2	911	132.090912443341	95
2	921	133.522532690416	96
2	925	133.551600628099	97
2	935	135.316721099686	98
2	939	135.343104020584	99
2	957	138.493265056098	100
2	961	138.516954170404	101
2	971	139.874561179004	102
2	981	141.540680069821	103
2	991	143.22508773884	104
2	995	143.250885974076	105
2	999	143.273211073201	106
2	1007	144.299656810109	107
2	1015	145.384942765889	108
2	1019	145.409560033594	109
2	1027	147.033949777245	110
2	1045	150.061015141182	111
2	1061	152.933783551811	112
2	1065	153.002600890152	113
2	1069	153.053241863352	114
2	1079	154.557170337641	115
2	1083	154.57958746121	116
2	1101	156.78375620495	117
2	1129	161.940407981767	118
2	1139	163.210686017464	119
2	1143	163.236701354585	120
2	1147	163.267119961316	121
2	1151	163.310767679784	122
2	1161	164.267159021366	123
2	1171	165.591534154618	124
2	1189	169.389212693154	125
2	1205	173.066769848864	126
2	1209	173.091200681336	127
2	1219	174.515505150293	128
2	1231	175.631891838887	129
2	1243	176.811367898203	130
2	1251	177.975397332357	131
2	1255	178.009617563058	132
2	1265	179.5306051364	133
2	1273	180.785855876506	134
2	1291	183.231596685424	135
2	1301	184.729419270059	136
2	1311	186.60033096973	137
2	1321	188.438186190049	138
2	1325	188.470974938391	139
2	1343	190.885749943605	140
2	1361	194.247180024216	141
2	1365	194.34028452898	142
2	1373	195.697634189323	143
2	1391	198.626505574225	144
2	1399	199.706640576666	145
2	1403	199.737391276742	146
2	1413	201.318073164373	147
2	1421	202.648519868673	148
2	1425	202.681882084577	149
2	1433	204.497182516603	150
2	1451	207.499249704275	151
2	1477	211.618181466191	152
2	1485	213.133954735617	153
2	1489	213.186307430924	154
2	1499	214.229281191969	155
2	1503	214.277341113353	156
2	1507	214.303699338474	157
2	1517	215.457648344984	158
2	1527	217.251410310698	159
2	1531	217.311637318821	160
2	1535	217.336365590722	161
2	1543	218.520350866757	162
2	1553	220.119661716564	163
2	1569	222.785286098189	164
2	1579	224.562055335948	165
2	1589	226.174771406977	166
2	1599	227.321938297483	167
2	1603	227.354086851689	168
2	1611	229.128482330344	169
2	1621	230.21831555663	170
2	1625	230.272259176428	171
2	1641	232.710023361638	172
2	1653	233.95993251484	173
2	1663	235.263122134832	174
2	1667	235.287705900582	175
2	1677	236.777840093013	176
2	1681	236.825043629144	177
2	1689	238.106915208372	178
2	1697	239.169492168451	179
3	7	0.159233733975	0
3	11	0.182801218651	1
3	19	1.316617257702	2
3	23	1.368577935155	3
3	33	3.137594848298	4
3	43	4.210711546678	5
3	55	5.993061979518	6
3	81	10.24805718389	7
3	85	10.325965384451	8
3	95	11.670184920596	9
3	103	12.966021459426	10
3	107	13.004375511246	11
3	123	16.285177957373	12
3	131	18.037926680516	13
3	135	18.071247554632	14
3	139	18.116997205676	15
3	147	19.156824569588	16
3	155	20.752557436101	17
3	163	21.979701183315	18
3	173	23.877362798748	19
3	183	25.401415955725	20
3	187	25.431986457429	21
3	195	26.621879850651	22
3	205	28.115249461166	23
3	215	29.282672904567	24
3	231	32.461407373252	25
3	241	33.647469256592	26
3	251	35.115903338482	27
3	261	36.438478081583	28
3	271	37.759739726027	29
3	287	41.316751476564	30
3	297	43.25272522768	31
3	307	44.785202019062	32
3	311	44.824217071579	33
3	315	44.864514347737	34
3	319	44.911759300325	35
3	337	47.92715152187	36
3	341	47.966603247815	37
3	345	48.007365215515	38
3	363	50.92763500848	39
3	375	52.124527722329	40
3	385	53.572748029133	41
3	389	53.612993618217	42
3	393	53.637966666627	43
3	403	55.456222372063	44
3	423	58.282022390138	45
3	433	59.760908176994	46
3	449	61.894967379264	47
3	459	63.131755029422	48
3	471	64.832881918731	49
3	479	66.171422622292	50
3	489	67.986808625929	51
3	493	68.021107977019	52
3	501	69.183198094931	53
3	509	70.793752092154	54
3	529	73.326682615229	55
3	533	73.363802757891	56
3	543	75.123245719052	57
3	553	76.407595782267	58
3	561	78.283321323393	59
3	569	79.883380682356	60
3	579	81.274812172624	61
3	587	82.812339753728	62
3	595	84.633192601535	63
3	599	84.672180285025	64
3	607	85.713465923371	65
3	617	87.702644106379	66
3	627	89.251683358707	67
3	637	90.780985556262	68
3	653	93.489545562208	69
3	665	95.164145333561	70
3	669	95.188340017718	71
3	679	96.750463674312	72
3	683	96.862008404258	73
3	707	101.452553165704	74
3	711	101.484948552121	75
3	723	102.950045468513	76
3	747	107.868860350575	77
3	755	109.106515169308	78
3	781	113.684072597974	79
3	791	115.381143008159	80
3	801	117.316388540064	81
3	809	118.582239092837	82
3	813	118.626831624168	83
3	821	119.715591920751	84
3	825	119.752234746075	85
3	851	124.642318490744	86
3	861	126.360867079748	87
3	869	127.642167206445	88
3	873	127.702736472125	89
3	883	128.686526901829	90
3	887	128.723855713641	91
3	897	130.552141130756	92
3	909	132.077700248324	93
3	913	132.104708840191	94
3	923	133.541433552422	95
3	927	133.567434866156	96
3	937	135.333083376877	97
3	941	135.372451752999	98
3	949	136.86985055203	99
3	959	138.503584574866	100
3	963	138.54986371081	101
3	979	141.527273623619	102
3	983	141.552294948044	103
3	993	143.239692106888	104
3	997	143.260890659882	105
3	1017	145.396535237626	106
3	1029	147.050526205113	107
3	1037	148.193492174058	108
3	1053	151.745757645612	109
3	1063	152.947192837712	110
3	1067	153.014995636833	111
3	1071	153.0759390468	112
3	1081	154.569414567547	113
3	1091	155.687466824934	114
3	1099	156.741763924949	115
3	1103	156.832919618301	116
3	1111	158.087355361503	117
3	1119	159.939687961484	118
3	1127	161.925586769449	119
3	1137	163.191673078311	120
3	1141	163.223428805003	121
3	1145	163.254269397621	122
3	1149	163.295324390669	123
3	1153	163.323336578155	124
3	1169	165.575850966923	125
3	1173	165.614137694148	126
3	1181	167.465673436959	127
3	1197	171.257379951234	128
3	1207	173.077152595287	129
3	1217	174.501608354545	130
3	1221	174.529391638344	131
3	1229	175.603704202005	132
3	1233	175.642934909564	133
3	1241	176.787176181534	134
3	1253	177.999326582857	135
3	1257	178.026271635884	136
3	1275	180.795986748753	137
3	1283	182.102940855365	138
3	1299	184.695469110417	139
3	1303	184.743271989852	140
3	1313	186.613578928912	141
3	1323	188.457771267298	142
3	1333	189.538705881525	143
3	1341	190.872193809345	144
3	1345	190.897107550409	145
3	1353	192.358438401925	146
3	1363	194.325234097494	147
3	1375	195.717427754753	148
3	1383	197.330750979801	149
3	1401	199.723331073733	150
3	1405	199.749549356479	151
3	1423	202.662157636979	152
3	1435	204.508791146631	153
3	1443	206.319868633981	154
3	1453	207.525720319764	155
3	1461	208.756976038492	156
3	1469	209.966946798103	157
3	1487	213.156837117482	158
3	1497	214.206798362112	159
3	1501	214.260644164148	160
3	1505	214.293378870343	161
3	1509	214.313912755164	162
3	1519	215.474122027464	163
3	1529	217.300312901632	164
3	1533	217.323492920835	165
3	1551	220.106616053369	166
3	1561	221.103239020646	167
3	1571	222.800872869396	168
3	1587	226.135028177246	169
3	1591	226.184829121073	170
3	1601	227.340560438062	171
3	1619	230.198698691451	172
3	1623	230.24643780343	173
3	1633	231.621933781264	174
3	1643	232.723650490457	175
3	1651	233.949713959209	176
3	1661	235.24357145348	177
3	1665	235.277463187978	178
3	1669	235.318420226918	179
3	1679	236.812069851466	180
4	13	0.195904958307	0
4	25	1.383808736407	1
4	37	3.166974751808	2
4	47	4.243633808767	3
4	59	6.048908278775	4
4	67	7.676269869834	5
4	75	9.012130888091	6
4	89	10.361732756371	7
4	97	11.72102100971	8
4	109	13.027413387482	9
4	117	14.503916026967	10
4	125	16.30514328057	11
4	141	18.148338483448	12
4	149	19.167951470858	13
4	157	20.765619679003	14
4	167	22.014844097277	15
4	177	23.926062245283	16
4	189	25.449532879226	17
4	199	26.646461981815	18
4	207	28.135834357226	19
4	217	29.297091108853	20
4	225	30.557584509525	21
4	235	32.533101756748	22
4	243	33.664554250495	23
4	255	35.169782982419	24
4	265	36.467308061538	25
4	273	37.770817114444	26
4	281	39.483147033774	27
4	291	41.344771802341	28
4	301	43.302997452764	29
4	321	44.922893086072	30
4	329	45.99180437508	31
4	347	48.031031633377	32
4	355	49.282319675916	33
4	367	50.952342681787	34
4	377	52.13862686681	35
4	395	53.654328571189	36
4	407	55.487968513394	37
4	415	57.260719036174	38
4	425	58.293429725341	39
4	435	59.772337220604	40
4	443	60.762035888263	41
4	453	61.958902860239	42
4	463	63.155808176744	43
4	473	64.84391288723	44
4	483	66.220255047072	45
4	495	68.050503440011	46
4	503	69.212050101921	47
4	513	70.839815258147	48
4	521	71.853438428654	49
4	535	73.376009223242	50
4	547	75.150978716684	51
4	555	76.4330014724	52
4	563	78.29674165695	53
4	573	79.920937199164	54
4	581	81.286264786106	55
4	589	82.827198968663	56
4	601	84.684432279689	57
4	611	85.757636097593	58
4	621	87.734737869742	59
4	631	89.292720561303	60
4	639	90.795106219073	61
4	647	92.381922734391	62
4	657	93.548405672698	63
4	673	95.215111607486	64
4	685	96.873343571393	65
4	693	98.569545462288	66
4	701	100.226310311132	67
4	715	101.512224348885	68
4	725	102.960339395941	69
4	733	104.763018073163	70
4	741	106.176853322498	71
4	749	107.879520948434	72
4	757	109.132039107357	73
4	765	110.697624136943	74
4	773	112.621089068022	75
4	785	113.709383284507	76
4	795	115.416782983062	77
4	803	117.326661698956	78
4	815	118.648161905118	79
4	827	119.773129528407	80
4	835	121.187729660059	81
4	843	122.895854157106	82
4	855	124.671791080646	83
4	863	126.374777127589	84
4	875	127.718958010543	85
4	889	128.735055395537	86
4	901	130.58852338276	87
4	915	132.125082101524	88
4	929	133.591646407459	89
4	943	135.387859317729	90
4	951	136.885735124514	91
4	965	138.580737878496	92
4	973	139.887152697083	93
4	985	141.58011998714	94
4	1001	143.29200988469	95
4	1009	144.312245530292	96
4	1021	145.422340887934	97
4	1031	147.06855803319	98
4	1039	148.204119248854	99
4	1047	150.095145213485	100
4	1055	151.75822524494	101
4	1073	153.116546729396	102
4	1085	154.591330376615	103
4	1093	155.737788789239	104
4	1105	156.845511276568	105
4	1113	158.117873539919	106
4	1121	159.961505490628	107
4	1131	161.959309143539	108
4	1155	163.334450637449	109
4	1163	164.285852328721	110
4	1175	165.634850719557	111
4	1183	167.479415689535	112
4	1191	169.407575099576	113
4	1199	171.290034866005	114
4	1211	173.109087123627	115
4	1223	174.539550108585	116
4	1235	175.677196920457	117
4	1245	176.826483727375	118
4	1259	178.03735383791	119
4	1267	179.548201768524	120
4	1277	180.824385758958	121
4	1285	182.118751452039	122
4	1293	183.254745239205	123
4	1305	184.756882351807	124
4	1315	186.63071023356	125
4	1327	188.490806664112	126
4	1335	189.573424813681	127
4	1347	190.925892119627	128
4	1355	192.376269968617	129
4	1367	194.362051957706	130
4	1377	195.74339443305	131
4	1385	197.343916679052	132
4	1393	198.6425145527	133
4	1407	199.775480165097	134
4	1415	201.374145166363	135
4	1427	202.701039724677	136
4	1437	204.522954740453	137
4	1445	206.331436992463	138
4	1455	207.540516908477	139
4	1463	208.797432472096	140
4	1471	209.977744653008	141
4	1479	211.628853538467	142
4	1491	213.210652961268	143
4	1511	214.326134756767	144
4	1521	215.486269214479	145
4	1537	217.352532239371	146
4	1545	218.532303247218	147
4	1555	220.134003082814	148
4	1563	221.127415383906	149
4	1573	222.821000121996	150
4	1581	224.600987899679	151
4	1593	226.20218196862	152
4	1605	227.384562716509	153
4	1613	229.142685410651	154
4	1627	230.289873717718	155
4	1635	231.644901603061	156
4	1645	232.75726805102	157
4	1655	233.996298778166	158
4	1671	235.330841574121	159
4	1683	236.849690612439	160
4	1691	238.124626797474	161
4	1699	239.195080207026	162
5	14	0.205904958307	0
5	26	1.393808736407	1
5	38	3.176974751808	2
5	48	4.253633808767	3
5	60	6.058908278775	4
5	68	7.686269869834	5
5	76	9.022130888091	6
5	90	10.371732756371	7
5	98	11.73102100971	8
5	110	13.037413387482	9
5	118	14.513916026967	10
5	126	16.31514328057	11
5	142	18.158338483448	12
5	150	19.177951470858	13
5	158	20.775619679003	14
5	168	22.024844097277	15
5	178	23.936062245283	16
5	190	25.459532879226	17
5	200	26.656461981815	18
5	208	28.145834357226	19
5	218	29.307091108853	20
5	226	30.567584509525	21
5	236	32.543101756748	22
5	244	33.674554250495	23
5	256	35.179782982419	24
5	266	36.477308061538	25
5	274	37.780817114444	26
5	282	39.493147033774	27
5	292	41.354771802341	28
5	302	43.312997452764	29
5	322	44.932893086072	30
5	330	46.00180437508	31
5	348	48.041031633377	32
5	356	49.292319675916	33
5	368	50.962342681787	34
5	378	52.14862686681	35
5	396	53.664328571189	36
5	408	55.497968513394	37
5	416	57.270719036174	38
5	426	58.303429725341	39
5	436	59.782337220604	40
5	444	60.772035888263	41
5	454	61.968902860239	42
5	464	63.165808176744	43
5	474	64.85391288723	44
5	484	66.230255047072	45
5	496	68.060503440011	46
5	504	69.222050101921	47
5	514	70.849815258147	48
5	522	71.863438428654	49
5	536	73.386009223242	50
5	548	75.160978716684	51
5	556	76.4430014724	52
5	564	78.30674165695	53
5	574	79.930937199164	54
5	582	81.296264786106	55
5	590	82.837198968663	56
5	602	84.694432279689	57
5	612	85.767636097593	58
5	622	87.744737869742	59
5	632	89.302720561303	60
5	640	90.805106219073	61
5	648	92.391922734391	62
5	658	93.558405672698	63
5	674	95.225111607486	64
5	686	96.883343571393	65
5	694	98.579545462288	66
5	702	100.236310311132	67
5	716	101.522224348885	68
5	726	102.970339395941	69
5	734	104.773018073163	70
5	742	106.186853322498	71
5	750	107.889520948434	72
5	758	109.142039107357	73
5	766	110.707624136943	74
5	774	112.631089068022	75
5	786	113.719383284507	76
5	796	115.426782983062	77
5	804	117.336661698956	78
5	816	118.658161905118	79
5	828	119.783129528407	80
5	836	121.197729660059	81
5	844	122.905854157106	82
5	856	124.681791080646	83
5	864	126.384777127589	84
5	876	127.728958010543	85
5	890	128.745055395537	86
5	902	130.59852338276	87
5	916	132.135082101524	88
5	930	133.601646407459	89
5	944	135.397859317729	90
5	952	136.895735124514	91
5	966	138.590737878496	92
5	974	139.897152697083	93
5	986	141.59011998714	94
5	1002	143.30200988469	95
5	1010	144.322245530292	96
5	1022	145.432340887934	97
5	1032	147.07855803319	98
5	1040	148.214119248854	99
5	1048	150.105145213485	100
5	1056	151.76822524494	101
5	1074	153.126546729396	102
5	1086	154.601330376615	103
5	1094	155.747788789239	104
5	1106	156.855511276568	105
5	1114	158.127873539919	106
5	1122	159.971505490628	107
5	1132	161.969309143539	108
5	1156	163.344450637449	109
5	1164	164.295852328721	110
5	1176	165.644850719557	111
5	1184	167.489415689535	112
5	1192	169.417575099576	113
5	1200	171.300034866005	114
5	1212	173.119087123627	115
5	1224	174.549550108585	116
5	1236	175.687196920457	117
5	1246	176.836483727375	118
5	1260	178.04735383791	119
5	1268	179.558201768524	120
5	1278	180.834385758958	121
5	1286	182.128751452039	122
5	1294	183.264745239205	123
5	1306	184.766882351807	124
5	1316	186.64071023356	125
5	1328	188.500806664112	126
5	1336	189.583424813681	127
5	1348	190.935892119627	128
5	1356	192.386269968617	129
5	1368	194.372051957706	130
5	1378	195.75339443305	131
5	1386	197.353916679052	132
5	1394	198.6525145527	133
5	1408	199.785480165097	134
5	1416	201.384145166363	135
5	1428	202.711039724677	136
5	1438	204.532954740453	137
5	1446	206.341436992463	138
5	1456	207.550516908477	139
5	1464	208.807432472096	140
5	1472	209.987744653008	141
5	1480	211.638853538467	142
5	1492	213.220652961268	143
5	1512	214.336134756767	144
5	1522	215.496269214479	145
5	1538	217.362532239371	146
5	1546	218.542303247218	147
5	1556	220.144003082814	148
5	1564	221.137415383906	149
5	1574	222.831000121996	150
5	1582	224.610987899679	151
5	1594	226.21218196862	152
5	1606	227.394562716509	153
5	1614	229.152685410651	154
5	1628	230.299873717718	155
5	1636	231.654901603061	156
5	1646	232.76726805102	157
5	1656	234.006298778166	158
5	1672	235.340841574121	159
5	1684	236.859690612439	160
5	1692	238.134626797474	161
5	1700	239.205080207026	162

