version 2
run General-0-20230921-23:09:52-8355
attr configname General
attr datetime 20230921-23:09:52
attr experiment General
attr inifile omnetpp.ini
attr iterationvars ""
attr iterationvarsf ""
attr measurement ""
attr network Network1
attr processid 8355
attr repetition 0
attr replication #0
attr resultdir results
attr runnumber 0
attr seedset 0
param Network1.node[*].transmissionTime "uniform(1s, 2s)"
param Network1.node[*].delayTime "uniform(0.01s, 0.2s)"
param Network1.node[*].processingTime exponential(0.01s)
param Network1.node[*].lossProbability 0.0

vector 0 Network1.node[0] txVector ETV
vector 1 Network1.node[1] txVector ETV
vector 2 Network1.node[3] txVector ETV
vector 3 Network1.node[4] txVector ETV
vector 4 Network1.node[5] rxVector ETV
vector 5 Network1.node[2] txVector ETV
0	1	0.114274565438	0
0	9	1.707119181827	1
0	17	3.144706391804	2
0	29	4.624683563206	3
0	37	6.603301906101	4
0	51	8.185321697341	5
0	59	9.334996561128	6
0	67	10.772028513792	7
0	75	12.130180683992	8
0	83	14.118554515838	9
0	91	15.53292310385	10
0	99	16.671106053358	11
0	111	18.344765684409	12
0	121	19.464962248998	13
0	137	21.031563697458	14
0	147	22.429384449106	15
0	173	23.717860881547	16
0	185	25.25106713323	17
0	195	26.86908256014	18
0	207	28.522283375572	19
0	215	29.970209549257	20
0	223	31.838335609838	21
0	231	33.249732334243	22
0	243	34.97178793939	23
0	251	36.461336881464	24
0	261	37.806688560016	25
0	269	39.044581374928	26
0	279	41.009071140626	27
0	289	42.97930782552	28
0	297	44.596965744702	29
0	307	46.133544953383	30
0	315	47.891923605307	31
0	325	48.89197895567	32
0	333	50.680718377075	33
0	341	51.706381090526	34
0	355	52.892839309136	35
0	369	54.057798180571	36
0	385	55.266955208574	37
0	393	57.244450343848	38
0	403	58.736718583694	39
0	411	60.510044598561	40
0	419	62.007435966125	41
0	427	63.408568307599	42
0	441	65.369402962113	43
0	451	66.380830417229	44
0	461	67.801369879004	45
0	469	69.102968512876	46
0	477	70.536407489171	47
0	485	72.315102886017	48
0	499	74.207152547855	49
0	507	75.381264496669	50
0	519	77.06265700872	51
0	527	78.973201727569	52
0	545	80.663226747727	53
0	553	82.615101222489	54
0	563	83.70955913824	55
0	573	85.016545190783	56
0	581	86.696815346675	57
0	593	87.929559478844	58
0	601	89.700648530927	59
0	609	91.690993537037	60
0	617	93.059095939696	61
0	629	94.305159122991	62
0	637	96.274062158848	63
0	655	98.08902864026	64
0	667	99.970748854411	65
0	681	101.856711119955	66
0	693	102.988563155366	67
0	701	104.371371213889	68
0	709	105.630073530909	69
0	723	107.031787073084	70
0	733	108.08047736374	71
0	743	109.702861786199	72
0	757	110.985561433093	73
0	767	112.32817241534	74
0	775	114.000129553567	75
0	783	115.833947787605	76
0	791	117.16791266071	77
0	799	118.97458198977	78
0	807	120.593408159989	79
0	815	122.135537616055	80
0	827	123.171571438279	81
0	835	124.752458712863	82
0	843	125.999857465582	83
0	851	127.434618103629	84
0	859	128.796807161145	85
0	867	130.089951565335	86
0	875	131.328364840555	87
0	883	132.921145112333	88
0	895	134.318401866206	89
0	903	135.431887783422	90
0	913	136.864169266387	91
0	933	138.60956733868	92
0	941	140.594500643979	93
0	951	142.574462963813	94
0	959	144.245846447381	95
0	969	145.620599150271	96
0	979	147.45391496046	97
0	989	148.539148021336	98
0	997	150.47636684923	99
0	1005	151.994516658211	100
0	1013	153.2690917082	101
0	1021	155.125367891356	102
0	1029	156.457558779591	103
0	1037	158.208580427882	104
0	1047	159.876173734045	105
0	1057	161.427252882006	106
0	1067	162.66033071334	107
0	1075	164.637132518073	108
0	1083	166.567951238095	109
0	1093	167.661845707647	110
0	1101	169.436529182443	111
0	1109	171.112218328598	112
0	1117	172.595109951762	113
0	1125	174.022014311129	114
0	1137	175.269059528444	115
0	1145	177.201620734843	116
0	1153	178.20908905178	117
0	1169	180.163422864477	118
0	1177	181.531049038597	119
0	1185	182.594602818449	120
0	1195	183.751824918051	121
0	1207	184.80914553682	122
0	1219	186.282288514158	123
0	1227	187.438942001747	124
0	1235	188.579258025238	125
0	1249	189.685512936987	126
0	1257	191.495106316717	127
0	1267	193.226850504834	128
0	1275	194.997723260276	129
0	1283	196.323020065982	130
0	1293	197.950754820449	131
0	1301	199.826781669711	132
0	1309	200.991270079823	133
0	1317	202.557776185531	134
0	1325	204.117550414601	135
0	1335	205.843123948747	136
0	1347	206.942856894653	137
0	1361	208.290554883038	138
0	1371	210.265143538905	139
0	1379	211.869221085064	140
0	1389	213.191554624667	141
0	1399	214.368054006561	142
0	1407	215.672227563416	143
0	1415	217.263085112055	144
0	1425	219.034310574955	145
0	1433	220.549232780547	146
0	1447	221.915477103167	147
0	1459	223.783732091854	148
0	1467	225.019566315305	149
0	1479	226.690327973184	150
0	1491	228.409717031834	151
0	1509	229.735834722952	152
0	1517	230.93647239598	153
0	1529	232.355109257237	154
0	1537	233.385317463041	155
0	1545	234.494221205204	156
0	1553	235.906273645428	157
0	1563	236.949179839655	158
0	1571	238.834201693149	159
0	1581	239.952021428929	160
1	3	0.142870607559	0
1	11	1.739354426047	1
1	19	3.159695111894	2
1	31	4.650735958777	3
1	39	6.621010252686	4
1	53	8.197836116662	5
1	61	9.356957639123	6
1	69	10.79591894069	7
1	77	12.141257035074	8
1	85	14.134992325854	9
1	93	15.545111909815	10
1	101	16.716841937081	11
1	113	18.358277445303	12
1	123	19.478046397399	13
1	139	21.049611671456	14
1	149	22.445063490641	15
1	175	23.730481453964	16
1	187	25.266666743931	17
1	197	26.889641056227	18
1	209	28.533332193928	19
1	217	29.981982805008	20
1	225	31.84984351994	21
1	233	33.279860061605	22
1	245	34.985927728617	23
1	253	36.497659070089	24
1	263	37.843902042575	25
1	271	39.062661175462	26
1	281	41.030482519655	27
1	291	42.997127582729	28
1	299	44.62966414486	29
1	309	46.147401830323	30
1	317	47.905661238245	31
1	327	48.904585356964	32
1	335	50.693043627259	33
1	343	51.732861852258	34
1	357	52.904172715369	35
1	371	54.071179727719	36
1	387	55.2978707743	37
1	395	57.267022713804	38
1	405	58.783315157002	39
1	413	60.530246469441	40
1	421	62.018721768498	41
1	429	63.442272183405	42
1	443	65.394125003693	43
1	453	66.398980600538	44
1	463	67.814409594596	45
1	471	69.130505659326	46
1	479	70.561431617108	47
1	487	72.326535416231	48
1	501	74.223601632767	49
1	509	75.394516205374	50
1	521	77.073523178664	51
1	529	78.995228865407	52
1	547	80.681801098753	53
1	555	82.635141734228	54
1	565	83.720834873978	55
1	575	85.035940210642	56
1	583	86.716346572058	57
1	595	87.944279159722	58
1	603	89.715908838885	59
1	611	91.704744156468	60
1	619	93.080057865306	61
1	631	94.319671510976	62
1	639	96.326392316811	63
1	657	98.102209185712	64
1	669	99.985085502965	65
1	683	101.879018308465	66
1	695	103.021137923274	67
1	703	104.383798668263	68
1	711	105.642929220114	69
1	725	107.044712579096	70
1	735	108.102874344546	71
1	745	109.713168803929	72
1	759	111.005296158529	73
1	769	112.367904498735	74
1	777	114.034755996261	75
1	785	115.859594353112	76
1	793	117.184093184481	77
1	801	118.986014476808	78
1	809	120.604696946449	79
1	817	122.147458571816	80
1	829	123.183148158807	81
1	837	124.76286292864	82
1	845	126.011934498444	83
1	853	127.450979138173	84
1	861	128.809043151728	85
1	869	130.10717758771	86
1	877	131.342742235116	87
1	885	133.003479796861	88
1	897	134.33157955962	89
1	905	135.449269150847	90
1	915	136.893017912529	91
1	935	138.642257029546	92
1	943	140.610012023462	93
1	953	142.588689861694	94
1	961	144.266681929264	95
1	971	145.645551461452	96
1	981	147.474871459162	97
1	991	148.580922327551	98
1	999	150.504867741429	99
1	1007	152.004603937174	100
1	1015	153.280860515261	101
1	1023	155.147848073669	102
1	1031	156.49376079536	103
1	1039	158.220721249829	104
1	1049	159.887588255095	105
1	1059	161.446058066389	106
1	1069	162.679710794496	107
1	1077	164.654488085622	108
1	1085	166.61637040113	109
1	1095	167.694881776413	110
1	1103	169.449338093998	111
1	1111	171.124375327011	112
1	1119	172.623615808228	113
1	1127	174.032386772052	114
1	1139	175.284031993142	115
1	1147	177.237848990062	116
1	1155	178.223426713675	117
1	1171	180.186377431116	118
1	1179	181.543384175657	119
1	1187	182.608790411972	120
1	1197	183.762659398227	121
1	1209	184.84054031205	122
1	1221	186.303812624352	123
1	1229	187.453389186297	124
1	1237	188.595738728835	125
1	1251	189.697795403219	126
1	1259	191.518109208137	127
1	1269	193.250164548338	128
1	1277	195.014593216635	129
1	1285	196.338152149794	130
1	1295	197.985832043802	131
1	1303	199.850573823218	132
1	1311	201.005857433236	133
1	1319	202.576092615058	134
1	1327	204.1279436171	135
1	1337	205.859578746457	136
1	1349	206.955636025121	137
1	1363	208.322772355063	138
1	1373	210.281987728321	139
1	1381	211.883026382165	140
1	1391	213.229549852352	141
1	1401	214.386996006463	142
1	1409	215.694268775017	143
1	1417	217.273207570443	144
1	1427	219.072183461282	145
1	1435	220.585946027251	146
1	1449	221.941323960235	147
1	1461	223.803421095883	148
1	1469	225.050464054182	149
1	1481	226.704635692315	150
1	1493	228.423286488197	151
1	1511	229.772352629206	152
1	1519	230.946525637964	153
1	1531	232.389196784644	154
1	1539	233.398391544543	155
1	1547	234.511120490922	156
1	1555	235.928341935641	157
1	1565	236.960236242411	158
1	1573	238.848607150951	159
1	1583	239.996813370908	160
2	5	0.160742618959	0
2	21	3.170431965449	1
2	25	3.218752967166	2
2	33	4.668085602989	3
2	41	6.638388525604	4
2	45	6.679688020882	5
2	63	9.401959775968	6
2	79	12.161337227528	7
2	87	14.146723600415	8
2	95	15.565974603624	9
2	103	16.733165303045	10
2	107	16.767181025031	11
2	115	18.379946180568	12
2	127	19.53148117738	13
2	131	19.565743040636	14
2	143	21.088852497242	15
2	153	22.496284756078	16
2	157	22.530205035642	17
2	161	22.570174900915	18
2	165	22.618236943128	19
2	169	22.680586005922	20
2	177	23.745995413865	21
2	181	23.776025733107	22
2	191	25.296191099642	23
2	201	26.916723600017	24
2	219	29.993808191027	25
2	227	31.860560273783	26
2	235	33.290027739265	27
2	239	33.338991689105	28
2	257	36.528538283778	29
2	265	37.865268007528	30
2	273	39.075016421196	31
2	283	41.041080329284	32
2	293	43.00782375944	33
2	301	44.646003445054	34
2	311	46.167780331078	35
2	319	47.931658432663	36
2	337	50.716153350941	37
2	347	51.757354169292	38
2	351	51.796192665218	39
2	359	52.942379074853	40
2	363	52.999527424604	41
2	375	54.100348009682	42
2	379	54.17299181818	43
2	399	57.303871695616	44
2	407	58.794918497947	45
2	433	63.467569471717	46
2	437	63.503917048473	47
2	445	65.425568858338	48
2	455	66.413745386364	49
2	465	67.831845426514	50
2	473	69.156043114346	51
2	481	70.573396235967	52
2	491	72.365253543912	53
2	495	72.407485329475	54
2	503	74.239229884785	55
2	513	75.449785075988	56
2	523	77.096402798415	57
2	531	79.017825277113	58
2	535	79.06249857086	59
2	539	79.101065063102	60
2	557	82.645789391156	61
2	567	83.735246422085	62
2	577	85.066303152515	63
2	585	86.733735772257	64
2	589	86.767201446909	65
2	597	87.955506309795	66
2	621	93.109295251013	67
2	625	93.154676244341	68
2	633	94.330142503687	69
2	641	96.348337216246	70
2	645	96.374619617265	71
2	649	96.417951204508	72
2	661	98.140711733426	73
2	671	100.002064878453	74
2	675	100.044511148424	75
2	687	101.910897954556	76
2	705	104.401830035982	77
2	715	105.679928750822	78
2	719	105.704254820456	79
2	727	107.0767158723	80
2	739	108.145456520865	81
2	749	109.741393432009	82
2	753	109.770496912773	83
2	761	111.049990096917	84
2	779	114.056679154003	85
2	795	117.199374624388	86
2	803	119.003881307963	87
2	811	120.632410479642	88
2	821	122.173856458701	89
2	831	123.198951054687	90
2	839	124.780152995854	91
2	847	126.029462194964	92
2	855	127.461031169501	93
2	879	131.35694891184	94
2	889	133.039574046612	95
2	899	134.343177557424	96
2	909	135.472494399449	97
2	917	136.912086543602	98
2	921	136.93956815394	99
2	925	136.994020471475	100
2	929	137.024698014268	101
2	937	138.658617534257	102
2	945	140.620416603019	103
2	955	142.603792575672	104
2	965	144.315105670359	105
2	973	145.659423436124	106
2	985	147.538308827087	107
2	993	148.595465203322	108
2	1009	152.01768332513	109
2	1017	153.315073881725	110
2	1025	155.165360797406	111
2	1043	158.261048753526	112
2	1051	159.90903711959	113
2	1061	161.456096744621	114
2	1079	164.677296048853	115
2	1089	166.66047742976	116
2	1097	167.70960971186	117
2	1105	169.474167687642	118
2	1129	174.043525378625	119
2	1133	174.078255737034	120
2	1149	177.252587605852	121
2	1157	178.244042246838	122
2	1161	178.274569294158	123
2	1165	178.31616455522	124
2	1181	181.554308050845	125
2	1189	182.620019569854	126
2	1201	183.786453123865	127
2	1213	184.873775045037	128
2	1231	187.466124834919	129
2	1239	188.607338084874	130
2	1243	188.636352774033	131
2	1261	191.535467141407	132
2	1271	193.319826905336	133
2	1287	196.370099820282	134
2	1313	201.060730417348	135
2	1331	204.18480796789	136
2	1339	205.872475103436	137
2	1343	205.895908938453	138
2	1353	206.98767185971	139
2	1357	207.02758965934	140
2	1367	208.34707742191	141
2	1385	211.910500327504	142
2	1395	213.256320668922	143
2	1403	214.397093311522	144
2	1421	217.300906596903	145
2	1429	219.091049982628	146
2	1439	220.608363628591	147
2	1443	220.630002228223	148
2	1453	221.962014905725	149
2	1463	223.816019915404	150
2	1471	225.115227242696	151
2	1475	225.140245299663	152
2	1483	226.740043126687	153
2	1487	226.761854837229	154
2	1497	228.455694907932	155
2	1501	228.482829673127	156
2	1505	228.508305914294	157
2	1513	229.794910317824	158
2	1521	230.964511926268	159
2	1525	231.008902136896	160
2	1541	233.416668562761	161
2	1557	235.941240469997	162
2	1567	236.977700687136	163
2	1575	238.88509907019	164
3	7	0.180512683223	0
3	15	1.778226948631	1
3	27	3.230265275703	2
3	35	4.679344347083	3
3	49	6.702318191481	4
3	57	8.252592727643	5
3	65	9.423065750425	6
3	73	10.820831792856	7
3	81	12.181924654679	8
3	89	14.16795528343	9
3	97	15.576996052439	10
3	109	16.78300980892	11
3	119	18.407738978807	12
3	135	19.599577388848	13
3	145	21.101999713851	14
3	171	22.70350509861	15
3	183	23.789422380433	16
3	193	25.3142166195	17
3	205	26.994510673401	18
3	213	28.584255597028	19
3	221	30.022647479893	20
3	229	31.875232999447	21
3	241	33.350874638857	22
3	249	35.012340656761	23
3	259	36.539055112836	24
3	267	37.884181793297	25
3	277	39.110938488216	26
3	287	41.079690047558	27
3	295	43.024336066759	28
3	305	44.678358449719	29
3	313	46.195561764446	30
3	323	47.974680142004	31
3	331	48.959085826963	32
3	339	50.732381644039	33
3	353	51.808217252855	34
3	367	53.042142740053	35
3	383	54.209003088431	36
3	391	55.32297070365	37
3	401	57.332772712597	38
3	409	58.846937092209	39
3	417	60.572797475521	40
3	425	62.048172815163	41
3	439	63.544465646263	42
3	449	65.463137261618	43
3	459	66.445860278701	44
3	467	67.853740389027	45
3	475	69.176832383431	46
3	483	70.592253842427	47
3	497	72.426102004393	48
3	505	74.250971836389	49
3	517	75.479019314398	50
3	525	77.107383993641	51
3	543	79.138165262769	52
3	551	80.720418834575	53
3	561	82.690627498673	54
3	571	83.767965339745	55
3	579	85.076879081683	56
3	591	86.779700955075	57
3	599	87.968312069057	58
3	607	89.760457620076	59
3	615	91.739653154593	60
3	627	93.170035232294	61
3	635	94.346104222601	62
3	653	96.474511872651	63
3	665	98.182550804892	64
3	679	100.080825840229	65
3	691	101.941055378228	66
3	699	103.044546219233	67
3	707	104.415018446466	68
3	721	105.74840406948	69
3	731	107.105891366694	70
3	741	108.158640451026	71
3	755	109.782164870354	72
3	765	111.074641469502	73
3	773	112.399653065367	74
3	781	114.07823390129	75
3	789	115.894751897013	76
3	797	117.231201763281	77
3	805	119.020867343632	78
3	813	120.642849751983	79
3	825	122.208447037986	80
3	833	123.213434347753	81
3	841	124.813983678586	82
3	849	126.043327136784	83
3	857	127.472950748521	84
3	865	128.84355099044	85
3	873	130.157635907448	86
3	881	131.384192830695	87
3	893	133.084730015883	88
3	901	134.353396831231	89
3	911	135.49125078743	90
3	931	137.037462891109	91
3	939	138.675152066854	92
3	949	140.646263107864	93
3	957	142.618886860774	94
3	967	144.332804289717	95
3	977	145.688832070024	96
3	987	147.54860507461	97
3	995	148.609853745092	98
3	1003	150.535742585708	99
3	1011	152.034893849174	100
3	1019	153.331169473533	101
3	1027	155.176090922844	102
3	1035	156.523056976951	103
3	1045	158.275771041012	104
3	1055	159.931311520767	105
3	1065	161.48559694932	106
3	1073	162.724897265365	107
3	1081	164.69194690629	108
3	1091	166.674573701361	109
3	1099	167.720282681532	110
3	1107	169.50977562679	111
3	1115	171.165193068171	112
3	1123	172.658294744807	113
3	1135	174.103051488447	114
3	1143	175.321840322913	115
3	1151	177.271652618624	116
3	1167	178.328186124583	117
3	1175	180.214905157394	118
3	1183	181.583851138562	119
3	1193	182.676002480579	120
3	1205	183.81939650949	121
3	1217	184.911560987314	122
3	1225	186.354840955778	123
3	1233	187.479449354135	124
3	1247	188.668408924741	125
3	1255	189.727012715198	126
3	1265	191.582108827228	127
3	1273	193.335648715867	128
3	1281	195.050327983193	129
3	1291	196.397453544515	130
3	1299	198.035395038096	131
3	1307	199.91482477738	132
3	1315	201.074507554403	133
3	1323	202.628765898306	134
3	1333	204.198959431835	135
3	1345	205.907421632903	136
3	1359	207.040044354161	137
3	1369	208.36446254728	138
3	1377	210.318504717544	139
3	1387	211.943787586376	140
3	1397	213.267106411192	141
3	1405	214.41996473258	142
3	1413	215.740676425979	143
3	1423	217.313525592809	144
3	1431	219.110036462175	145
3	1445	220.64873261874	146
3	1457	221.987439393711	147
3	1465	223.841083142027	148
3	1477	225.160587012051	149
3	1489	226.775663498773	150
3	1507	228.535662598789	151
3	1515	229.805872432766	152
3	1527	231.038492278101	153
3	1535	232.435083700657	154
3	1543	233.434022385185	155
3	1551	234.576456347248	156
3	1561	236.001738853989	157
3	1569	237.021829819763	158
3	1579	238.948954826824	159
4	8	0.190512683223	0
4	16	1.788226948631	1
4	28	3.240265275703	2
4	36	4.689344347083	3
4	50	6.712318191481	4
4	58	8.262592727643	5
4	66	9.433065750425	6
4	74	10.830831792856	7
4	82	12.191924654679	8
4	90	14.17795528343	9
4	98	15.586996052439	10
4	110	16.79300980892	11
4	120	18.417738978807	12
4	136	19.609577388848	13
4	146	21.111999713851	14
4	172	22.71350509861	15
4	184	23.799422380433	16
4	194	25.3242166195	17
4	206	27.004510673401	18
4	214	28.594255597028	19
4	222	30.032647479893	20
4	230	31.885232999447	21
4	242	33.360874638857	22
4	250	35.022340656761	23
4	260	36.549055112836	24
4	268	37.894181793297	25
4	278	39.120938488216	26
4	288	41.089690047558	27
4	296	43.034336066759	28
4	306	44.688358449719	29
4	314	46.205561764446	30
4	324	47.984680142004	31
4	332	48.969085826963	32
4	340	50.742381644039	33
4	354	51.818217252855	34
4	368	53.052142740053	35
4	384	54.219003088431	36
4	392	55.33297070365	37
4	402	57.342772712597	38
4	410	58.856937092209	39
4	418	60.582797475521	40
4	426	62.058172815163	41
4	440	63.554465646263	42
4	450	65.473137261618	43
4	460	66.455860278701	44
4	468	67.863740389027	45
4	476	69.186832383431	46
4	484	70.602253842427	47
4	498	72.436102004393	48
4	506	74.260971836389	49
4	518	75.489019314398	50
4	526	77.117383993641	51
4	544	79.148165262769	52
4	552	80.730418834575	53
4	562	82.700627498673	54
4	572	83.777965339745	55
4	580	85.086879081683	56
4	592	86.789700955075	57
4	600	87.978312069057	58
4	608	89.770457620076	59
4	616	91.749653154593	60
4	628	93.180035232294	61
4	636	94.356104222601	62
4	654	96.484511872651	63
4	666	98.192550804892	64
4	680	100.090825840229	65
4	692	101.951055378228	66
4	700	103.054546219233	67
4	708	104.425018446466	68
4	722	105.75840406948	69
4	732	107.115891366694	70
4	742	108.168640451026	71
4	756	109.792164870354	72
4	766	111.084641469502	73
4	774	112.409653065367	74
4	782	114.08823390129	75
4	790	115.904751897013	76
4	798	117.241201763281	77
4	806	119.030867343632	78
4	814	120.652849751983	79
4	826	122.218447037986	80
4	834	123.223434347753	81
4	842	124.823983678586	82
4	850	126.053327136784	83
4	858	127.482950748521	84
4	866	128.85355099044	85
4	874	130.167635907448	86
4	882	131.394192830695	87
4	894	133.094730015883	88
4	902	134.363396831231	89
4	912	135.50125078743	90
4	932	137.047462891109	91
4	940	138.685152066854	92
4	950	140.656263107864	93
4	958	142.628886860774	94
4	968	144.342804289717	95
4	978	145.698832070024	96
4	988	147.55860507461	97
4	996	148.619853745092	98
4	1004	150.545742585708	99
4	1012	152.044893849174	100
4	1020	153.341169473533	101
4	1028	155.186090922844	102
4	1036	156.533056976951	103
4	1046	158.285771041012	104
4	1056	159.941311520767	105
4	1066	161.49559694932	106
4	1074	162.734897265365	107
4	1082	164.70194690629	108
4	1092	166.684573701361	109
4	1100	167.730282681532	110
4	1108	169.51977562679	111
4	1116	171.175193068171	112
4	1124	172.668294744807	113
4	1136	174.113051488447	114
4	1144	175.331840322913	115
4	1152	177.281652618624	116
4	1168	178.338186124583	117
4	1176	180.224905157394	118
4	1184	181.593851138562	119
4	1194	182.686002480579	120
4	1206	183.82939650949	121
4	1218	184.921560987314	122
4	1226	186.364840955778	123
4	1234	187.489449354135	124
4	1248	188.678408924741	125
4	1256	189.737012715198	126
4	1266	191.592108827228	127
4	1274	193.345648715867	128
4	1282	195.060327983193	129
4	1292	196.407453544515	130
4	1300	198.045395038096	131
4	1308	199.92482477738	132
4	1316	201.084507554403	133
4	1324	202.638765898306	134
4	1334	204.208959431835	135
4	1346	205.917421632903	136
4	1360	207.050044354161	137
4	1370	208.37446254728	138
4	1378	210.328504717544	139
4	1388	211.953787586376	140
4	1398	213.277106411192	141
4	1406	214.42996473258	142
4	1414	215.750676425979	143
4	1424	217.323525592809	144
4	1432	219.120036462175	145
4	1446	220.65873261874	146
4	1458	221.997439393711	147
4	1466	223.851083142027	148
4	1478	225.170587012051	149
4	1490	226.785663498773	150
4	1508	228.545662598789	151
4	1516	229.815872432766	152
4	1528	231.048492278101	153
4	1536	232.445083700657	154
4	1544	233.444022385185	155
4	1552	234.586456347248	156
4	1562	236.011738853989	157
4	1570	237.031829819763	158
4	1580	238.958954826824	159
5	13	1.752537987455	0
5	23	3.190878090532	1
5	43	6.654805472624	2
5	47	6.692128505789	3
5	55	8.236615266875	4
5	71	10.810439961292	5
5	105	16.743738572309	6
5	117	18.395295024326	7
5	125	19.512902220969	8
5	129	19.544734581535	9
5	133	19.586160847178	10
5	141	21.07726908218	11
5	151	22.463647420319	12
5	155	22.508808956007	13
5	159	22.558939634441	14
5	163	22.59698412296	15
5	167	22.636942301391	16
5	179	23.762436460948	17
5	189	25.277752214916	18
5	199	26.902141871177	19
5	203	26.968101697622	20
5	211	28.555858269177	21
5	237	33.300145571584	22
5	247	34.996114683321	23
5	255	36.516738710362	24
5	275	39.087485013884	25
5	285	41.057771466521	26
5	303	44.66688248939	27
5	321	47.95304900917	28
5	329	48.917514871549	29
5	345	51.744112178157	30
5	349	51.779972296027	31
5	361	52.966122504997	32
5	365	53.023360589266	33
5	373	54.08223659946	34
5	377	54.121432107224	35
5	381	54.19182062363	36
5	389	55.310334932522	37
5	397	57.286977350238	38
5	415	60.545531141724	39
5	423	62.029751452135	40
5	431	63.456723676799	41
5	435	63.492495793359	42
5	447	65.436507603811	43
5	457	66.426896986651	44
5	489	72.342694609069	45
5	493	72.376054332471	46
5	511	75.408456781093	47
5	515	75.461170944202	48
5	533	79.037932968744	49
5	537	79.088414132088	50
5	541	79.120005077129	51
5	549	80.693516485027	52
5	559	82.661720207129	53
5	569	83.752836069827	54
5	587	86.74933585599	55
5	605	89.743718185634	56
5	613	91.718146528664	57
5	623	93.127385047964	58
5	643	96.3618548901	59
5	647	96.385739062676	60
5	651	96.439655561808	61
5	659	98.116897142628	62
5	663	98.166585305723	63
5	673	100.014315303392	64
5	677	100.058800266782	65
5	685	101.889753372239	66
5	689	101.926301981532	67
5	697	103.031332816204	68
5	713	105.665260107386	69
5	717	105.690197557017	70
5	729	107.091000282588	71
5	737	108.124178916529	72
5	747	109.726730461745	73
5	751	109.759559358897	74
5	763	111.061219722586	75
5	771	112.380480347398	76
5	787	115.877413197343	77
5	819	122.160289296174	78
5	823	122.19253401013	79
5	863	128.828388955891	80
5	871	130.143518901669	81
5	887	133.019424457028	82
5	891	133.052676007845	83
5	907	135.461246468526	84
5	919	136.927191495229	85
5	923	136.961117899276	86
5	927	137.005043656271	87
5	947	140.633580876931	88
5	963	144.293964522994	89
5	975	145.677669153356	90
5	983	147.516848046736	91
5	1001	150.524902985308	92
5	1033	156.508071813632	93
5	1041	158.244962559985	94
5	1053	159.920062912189	95
5	1063	161.47474823521	96
5	1071	162.69679615525	97
5	1087	166.645944585052	98
5	1113	171.149433838442	99
5	1121	172.646594173919	100
5	1131	174.059181607835	101
5	1141	175.30523558397	102
5	1159	178.258464958728	103
5	1163	178.305315817982	104
5	1173	180.203065417958	105
5	1191	182.649292614827	106
5	1199	183.776125068318	107
5	1203	183.79835204144	108
5	1211	184.859098804264	109
5	1215	184.888194376926	110
5	1223	186.32620709594	111
5	1241	188.619582156909	112
5	1245	188.650801758723	113
5	1253	189.713470729057	114
5	1263	191.560571189594	115
5	1279	195.034299874113	116
5	1289	196.384379871787	117
5	1297	198.023466808208	118
5	1305	199.899939884516	119
5	1321	202.609235364044	120
5	1329	204.151462085669	121
5	1341	205.884111297571	122
5	1351	206.970665149288	123
5	1355	207.001766252837	124
5	1365	208.334754368269	125
5	1375	210.301740018745	126
5	1383	211.899783405323	127
5	1393	213.244123431467	128
5	1411	215.724970198399	129
5	1419	217.283836915262	130
5	1437	220.59639574393	131
5	1441	220.618675037925	132
5	1451	221.951535686554	133
5	1455	221.974807784745	134
5	1473	225.129540076017	135
5	1485	226.751404692421	136
5	1495	228.438909712447	137
5	1499	228.472144666309	138
5	1503	228.492965680887	139
5	1523	230.975381578045	140
5	1533	232.402458592619	141
5	1549	234.555335858384	142
5	1559	235.955613508557	143
5	1577	238.896885060621	144

