version 2
run General-1-20231008-07:01:11-16668
attr configname General
attr datetime 20231008-07:01:11
attr experiment General
attr inifile omnetpp.ini
attr iterationvars ""
attr iterationvarsf ""
attr measurement ""
attr network Network2
attr processid 16668
attr repetition 1
attr replication #1
attr resultdir results
attr runnumber 1
attr seedset 1
param Network2.node[*].transmissionTime "uniform(1s, 2s)"
param Network2.node[*].delayTime "uniform(0.01s, 0.2s)"
param Network2.node[*].processingTime exponential(0.01s)
param Network2.node[*].lossProbability 0.25

vector 0 Network2.node[0] txVector ETV
vector 1 Network2.node[1] txVector ETV
vector 2 Network2.node[3] txVector ETV
vector 3 Network2.node[4] txVector ETV
vector 4 Network2.node[5] rxVector ETV
vector 5 Network2.node[2] txVector ETV
vector 6 Network2.node[6] txVector ETV
0	1	0.089234179703	0
0	24	2.086418987836	1
0	47	3.290871236825	2
0	70	4.809023785058	3
0	72	6.124539418963	4
0	91	7.811040343602	5
0	111	9.280278868393	6
0	134	10.846190896935	7
0	157	12.361080004486	8
0	180	13.998916483137	9
0	203	15.113662453021	10
0	226	16.122670448504	11
0	245	17.819488611191	12
0	247	19.329298889383	13
0	270	20.4314341218	14
0	289	21.664408395185	15
0	291	23.580818268356	16
0	293	25.362776731026	17
0	316	26.979105673848	18
0	318	28.949125663262	19
0	341	30.795954462724	20
0	364	32.327780909023	21
0	366	34.080536467374	22
0	389	35.147072949798	23
0	412	36.31247906259	24
0	414	37.916789552082	25
0	433	39.466337471387	26
0	456	40.925882752171	27
0	458	42.770617197385	28
0	481	44.676009509364	29
0	496	45.911277836073	30
0	519	47.590346673388	31
0	542	49.287856169162	32
0	544	50.605240120204	33
0	567	52.227159488831	34
0	587	53.243622253301	35
0	610	55.055393766962	36
0	633	56.522273789044	37
0	635	57.531186469016	38
0	637	59.036650399794	39
0	660	60.709797678865	40
0	683	61.854343217914	41
0	706	63.054614623659	42
0	708	64.311683921958	43
0	731	65.943987237638	44
0	754	67.147045081364	45
0	777	68.839722801814	46
0	800	70.719575906521	47
0	823	72.679010223713	48
0	846	73.724821742507	49
0	869	74.791546735796	50
0	892	76.78299730469	51
0	899	78.578964244458	52
0	901	80.194268476335	53
0	924	82.032072343981	54
0	947	83.17886471341	55
0	970	84.407469522791	56
0	993	86.03577856382	57
0	1013	87.610122786254	58
0	1015	88.776936604759	59
0	1038	90.216341041379	60
0	1040	92.213094465785	61
0	1063	94.029929578189	62
0	1086	95.985139750062	63
0	1109	97.442544667401	64
0	1132	98.582175922232	65
0	1155	100.031422675938	66
0	1178	101.837033998339	67
0	1198	103.604318510626	68
0	1221	104.715238878854	69
0	1241	106.333137325129	70
0	1264	107.661956585363	71
0	1266	109.607265029686	72
0	1289	111.032826415614	73
0	1291	112.609275051976	74
0	1293	113.81074172014	75
0	1295	115.531259637443	76
0	1318	117.378603669466	77
0	1341	118.568209615886	78
0	1356	119.903882004438	79
0	1379	121.837784616627	80
0	1381	122.899624696119	81
0	1401	124.604509001715	82
0	1424	125.726663075738	83
0	1447	127.041428762606	84
0	1470	129.028530408746	85
0	1493	130.568791348372	86
0	1516	131.997540131795	87
0	1530	133.395530769254	88
0	1553	134.409623062123	89
0	1555	135.720590730083	90
0	1575	137.67537237087	91
0	1598	139.132350501257	92
0	1621	140.987706918388	93
0	1644	142.243415144158	94
0	1667	143.935775268709	95
0	1690	145.746222215125	96
0	1713	147.172861376663	97
0	1736	148.781170999051	98
0	1743	149.845910979553	99
0	1766	151.79474786285	100
0	1768	153.135127157557	101
0	1788	154.930428321825	102
0	1811	156.909911679456	103
0	1834	158.756424253926	104
0	1836	160.533893003946	105
0	1859	162.028736087613	106
0	1861	163.327442953017	107
0	1880	165.076585582111	108
0	1903	166.220192576179	109
0	1905	167.52463940636	110
0	1907	169.10916891054	111
0	1909	170.533724085779	112
0	1911	171.876281526291	113
0	1934	173.293330621326	114
0	1957	174.642498032542	115
0	1980	176.138052069468	116
0	2003	177.950559373598	117
0	2026	179.031906274499	118
0	2033	180.567914773596	119
0	2056	182.201638556903	120
0	2079	184.024641602419	121
0	2081	185.198639473764	122
0	2104	186.564974133976	123
0	2127	188.249192186285	124
0	2150	189.824661806112	125
0	2152	191.311412554353	126
0	2175	192.909877244735	127
0	2177	194.290834466115	128
0	2200	195.762529132774	129
0	2223	196.955085154509	130
0	2246	198.03957759531	131
0	2248	199.621607574055	132
0	2271	200.914983851722	133
0	2294	202.341311884232	134
0	2317	204.038460414976	135
0	2340	205.361113269467	136
0	2363	206.596190908577	137
0	2365	208.421833316682	138
0	2388	209.813050420841	139
0	2411	211.662819330932	140
0	2434	212.81300315622	141
0	2444	214.803918783206	142
0	2467	216.364867538332	143
0	2469	217.869856128122	144
0	2471	219.146279175419	145
0	2494	220.974569056535	146
0	2517	222.801705054127	147
0	2519	224.251730884545	148
0	2521	225.367807102975	149
0	2544	226.545112734547	150
0	2567	227.799001354378	151
0	2577	229.686494416677	152
0	2600	231.041429064822	153
0	2602	232.578436183863	154
0	2625	233.944419528943	155
0	2648	235.604087001997	156
0	2671	236.86722602195	157
0	2694	237.890596086047	158
0	2714	239.870186256132	159
1	3	0.126198958082	0
1	3	0.126198958082	1
1	3	0.126198958082	2
1	3	0.126198958082	3
1	26	2.117465960799	4
1	26	2.117465960799	5
1	26	2.117465960799	6
1	26	2.117465960799	7
1	49	3.320897541596	8
1	49	3.320897541596	9
1	49	3.320897541596	10
1	49	3.320897541596	11
1	74	6.152534856253	12
1	74	6.152534856253	13
1	74	6.152534856253	14
1	74	6.152534856253	15
1	93	7.822051508489	16
1	93	7.822051508489	17
1	93	7.822051508489	18
1	93	7.822051508489	19
1	113	9.299796449645	20
1	113	9.299796449645	21
1	113	9.299796449645	22
1	113	9.299796449645	23
1	136	10.885121707724	24
1	136	10.885121707724	25
1	136	10.885121707724	26
1	136	10.885121707724	27
1	159	12.372430356923	28
1	159	12.372430356923	29
1	159	12.372430356923	30
1	159	12.372430356923	31
1	182	14.03877217603	32
1	182	14.03877217603	33
1	182	14.03877217603	34
1	182	14.03877217603	35
1	205	15.136008234495	36
1	205	15.136008234495	37
1	205	15.136008234495	38
1	205	15.136008234495	39
1	228	16.13335323877	40
1	228	16.13335323877	41
1	228	16.13335323877	42
1	228	16.13335323877	43
1	249	19.342705750064	44
1	249	19.342705750064	45
1	249	19.342705750064	46
1	249	19.342705750064	47
1	272	20.457890224512	48
1	272	20.457890224512	49
1	272	20.457890224512	50
1	272	20.457890224512	51
1	295	25.373143365016	52
1	295	25.373143365016	53
1	295	25.373143365016	54
1	295	25.373143365016	55
1	320	28.961868028807	56
1	320	28.961868028807	57
1	320	28.961868028807	58
1	320	28.961868028807	59
1	343	30.80711234371	60
1	343	30.80711234371	61
1	343	30.80711234371	62
1	343	30.80711234371	63
1	368	34.093551777345	64
1	368	34.093551777345	65
1	368	34.093551777345	66
1	368	34.093551777345	67
1	391	35.168690333439	68
1	391	35.168690333439	69
1	391	35.168690333439	70
1	391	35.168690333439	71
1	416	37.952851001202	72
1	416	37.952851001202	73
1	416	37.952851001202	74
1	416	37.952851001202	75
1	435	39.508861088411	76
1	435	39.508861088411	77
1	435	39.508861088411	78
1	435	39.508861088411	79
1	460	42.786776841679	80
1	460	42.786776841679	81
1	460	42.786776841679	82
1	460	42.786776841679	83
1	483	44.702888913868	84
1	483	44.702888913868	85
1	483	44.702888913868	86
1	483	44.702888913868	87
1	498	45.946361854575	88
1	498	45.946361854575	89
1	498	45.946361854575	90
1	498	45.946361854575	91
1	521	47.601123304306	92
1	521	47.601123304306	93
1	521	47.601123304306	94
1	521	47.601123304306	95
1	546	50.620865648516	96
1	546	50.620865648516	97
1	546	50.620865648516	98
1	546	50.620865648516	99
1	569	52.240709113284	100
1	569	52.240709113284	101
1	569	52.240709113284	102
1	569	52.240709113284	103
1	589	53.263736254492	104
1	589	53.263736254492	105
1	589	53.263736254492	106
1	589	53.263736254492	107
1	612	55.069627594457	108
1	612	55.069627594457	109
1	612	55.069627594457	110
1	612	55.069627594457	111
1	639	59.047220965035	112
1	639	59.047220965035	113
1	639	59.047220965035	114
1	639	59.047220965035	115
1	662	60.73372192277	116
1	662	60.73372192277	117
1	662	60.73372192277	118
1	662	60.73372192277	119
1	685	61.874154486612	120
1	685	61.874154486612	121
1	685	61.874154486612	122
1	685	61.874154486612	123
1	710	64.325919664829	124
1	710	64.325919664829	125
1	710	64.325919664829	126
1	710	64.325919664829	127
1	733	66.003360947715	128
1	733	66.003360947715	129
1	733	66.003360947715	130
1	733	66.003360947715	131
1	756	67.168787349108	132
1	756	67.168787349108	133
1	756	67.168787349108	134
1	756	67.168787349108	135
1	779	68.855992795801	136
1	779	68.855992795801	137
1	779	68.855992795801	138
1	779	68.855992795801	139
1	802	70.74587031782	140
1	802	70.74587031782	141
1	802	70.74587031782	142
1	802	70.74587031782	143
1	825	72.693917640167	144
1	825	72.693917640167	145
1	825	72.693917640167	146
1	825	72.693917640167	147
1	848	73.740957412548	148
1	848	73.740957412548	149
1	848	73.740957412548	150
1	848	73.740957412548	151
1	871	74.816665320166	152
1	871	74.816665320166	153
1	871	74.816665320166	154
1	871	74.816665320166	155
1	894	76.817680669818	156
1	894	76.817680669818	157
1	894	76.817680669818	158
1	894	76.817680669818	159
1	903	80.216175929546	160
1	903	80.216175929546	161
1	903	80.216175929546	162
1	903	80.216175929546	163
1	926	82.045141638223	164
1	926	82.045141638223	165
1	926	82.045141638223	166
1	926	82.045141638223	167
1	949	83.207347145053	168
1	949	83.207347145053	169
1	949	83.207347145053	170
1	949	83.207347145053	171
1	972	84.420895790139	172
1	972	84.420895790139	173
1	972	84.420895790139	174
1	972	84.420895790139	175
1	995	86.050540340605	176
1	995	86.050540340605	177
1	995	86.050540340605	178
1	995	86.050540340605	179
1	1017	88.788685096867	180
1	1017	88.788685096867	181
1	1017	88.788685096867	182
1	1017	88.788685096867	183
1	1042	92.232117669252	184
1	1042	92.232117669252	185
1	1042	92.232117669252	186
1	1042	92.232117669252	187
1	1065	94.045304562114	188
1	1065	94.045304562114	189
1	1065	94.045304562114	190
1	1065	94.045304562114	191
1	1088	95.996620838367	192
1	1088	95.996620838367	193
1	1088	95.996620838367	194
1	1088	95.996620838367	195
1	1111	97.452727029709	196
1	1111	97.452727029709	197
1	1111	97.452727029709	198
1	1111	97.452727029709	199
1	1134	98.616802132861	200
1	1134	98.616802132861	201
1	1134	98.616802132861	202
1	1134	98.616802132861	203
1	1157	100.049366129599	204
1	1157	100.049366129599	205
1	1157	100.049366129599	206
1	1157	100.049366129599	207
1	1180	101.85072497255	208
1	1180	101.85072497255	209
1	1180	101.85072497255	210
1	1180	101.85072497255	211
1	1200	103.625544405978	212
1	1200	103.625544405978	213
1	1200	103.625544405978	214
1	1200	103.625544405978	215
1	1223	104.726300501191	216
1	1223	104.726300501191	217
1	1223	104.726300501191	218
1	1223	104.726300501191	219
1	1243	106.347354263826	220
1	1243	106.347354263826	221
1	1243	106.347354263826	222
1	1243	106.347354263826	223
1	1268	109.632505975455	224
1	1268	109.632505975455	225
1	1268	109.632505975455	226
1	1268	109.632505975455	227
1	1297	115.5496657717	228
1	1297	115.5496657717	229
1	1297	115.5496657717	230
1	1297	115.5496657717	231
1	1320	117.396109398184	232
1	1320	117.396109398184	233
1	1320	117.396109398184	234
1	1320	117.396109398184	235
1	1343	118.590402585436	236
1	1343	118.590402585436	237
1	1343	118.590402585436	238
1	1343	118.590402585436	239
1	1358	119.933394043062	240
1	1358	119.933394043062	241
1	1358	119.933394043062	242
1	1358	119.933394043062	243
1	1383	122.914059390669	244
1	1383	122.914059390669	245
1	1383	122.914059390669	246
1	1383	122.914059390669	247
1	1403	124.624442647741	248
1	1403	124.624442647741	249
1	1403	124.624442647741	250
1	1403	124.624442647741	251
1	1426	125.746520973815	252
1	1426	125.746520973815	253
1	1426	125.746520973815	254
1	1426	125.746520973815	255
1	1449	127.079372909637	256
1	1449	127.079372909637	257
1	1449	127.079372909637	258
1	1449	127.079372909637	259
1	1472	129.068257655354	260
1	1472	129.068257655354	261
1	1472	129.068257655354	262
1	1472	129.068257655354	263
1	1495	130.587645684122	264
1	1495	130.587645684122	265
1	1495	130.587645684122	266
1	1495	130.587645684122	267
1	1518	132.014587108518	268
1	1518	132.014587108518	269
1	1518	132.014587108518	270
1	1518	132.014587108518	271
1	1532	133.418116667978	272
1	1532	133.418116667978	273
1	1532	133.418116667978	274
1	1532	133.418116667978	275
1	1557	135.755540889143	276
1	1557	135.755540889143	277
1	1557	135.755540889143	278
1	1557	135.755540889143	279
1	1577	137.690414234903	280
1	1577	137.690414234903	281
1	1577	137.690414234903	282
1	1577	137.690414234903	283
1	1600	139.164277627795	284
1	1600	139.164277627795	285
1	1600	139.164277627795	286
1	1600	139.164277627795	287
1	1623	141.003372985787	288
1	1623	141.003372985787	289
1	1623	141.003372985787	290
1	1623	141.003372985787	291
1	1646	142.255993756378	292
1	1646	142.255993756378	293
1	1646	142.255993756378	294
1	1646	142.255993756378	295
1	1669	143.947241088958	296
1	1669	143.947241088958	297
1	1669	143.947241088958	298
1	1669	143.947241088958	299
1	1692	145.765562065313	300
1	1692	145.765562065313	301
1	1692	145.765562065313	302
1	1692	145.765562065313	303
1	1715	147.182873204369	304
1	1715	147.182873204369	305
1	1715	147.182873204369	306
1	1715	147.182873204369	307
1	1738	148.838668927062	308
1	1738	148.838668927062	309
1	1738	148.838668927062	310
1	1738	148.838668927062	311
1	1745	149.869849637787	312
1	1745	149.869849637787	313
1	1745	149.869849637787	314
1	1745	149.869849637787	315
1	1770	153.151819529463	316
1	1770	153.151819529463	317
1	1770	153.151819529463	318
1	1770	153.151819529463	319
1	1790	154.944959835238	320
1	1790	154.944959835238	321
1	1790	154.944959835238	322
1	1790	154.944959835238	323
1	1813	156.949003399064	324
1	1813	156.949003399064	325
1	1813	156.949003399064	326
1	1813	156.949003399064	327
1	1838	160.551412076123	328
1	1838	160.551412076123	329
1	1838	160.551412076123	330
1	1838	160.551412076123	331
1	1863	163.357343793328	332
1	1863	163.357343793328	333
1	1863	163.357343793328	334
1	1863	163.357343793328	335
1	1882	165.087454270167	336
1	1882	165.087454270167	337
1	1882	165.087454270167	338
1	1882	165.087454270167	339
1	1913	171.900587719849	340
1	1913	171.900587719849	341
1	1913	171.900587719849	342
1	1913	171.900587719849	343
1	1936	173.331016917451	344
1	1936	173.331016917451	345
1	1936	173.331016917451	346
1	1936	173.331016917451	347
1	1959	174.671839456005	348
1	1959	174.671839456005	349
1	1959	174.671839456005	350
1	1959	174.671839456005	351
1	1982	176.151390053288	352
1	1982	176.151390053288	353
1	1982	176.151390053288	354
1	1982	176.151390053288	355
1	2005	177.966038455743	356
1	2005	177.966038455743	357
1	2005	177.966038455743	358
1	2005	177.966038455743	359
1	2028	179.042313035394	360
1	2028	179.042313035394	361
1	2028	179.042313035394	362
1	2028	179.042313035394	363
1	2035	180.592360919636	364
1	2035	180.592360919636	365
1	2035	180.592360919636	366
1	2035	180.592360919636	367
1	2058	182.24195747836	368
1	2058	182.24195747836	369
1	2058	182.24195747836	370
1	2058	182.24195747836	371
1	2083	185.213023932901	372
1	2083	185.213023932901	373
1	2083	185.213023932901	374
1	2083	185.213023932901	375
1	2106	186.575645275913	376
1	2106	186.575645275913	377
1	2106	186.575645275913	378
1	2106	186.575645275913	379
1	2129	188.271211058965	380
1	2129	188.271211058965	381
1	2129	188.271211058965	382
1	2129	188.271211058965	383
1	2154	191.328904809393	384
1	2154	191.328904809393	385
1	2154	191.328904809393	386
1	2154	191.328904809393	387
1	2179	194.319623303715	388
1	2179	194.319623303715	389
1	2179	194.319623303715	390
1	2179	194.319623303715	391
1	2202	195.786509803205	392
1	2202	195.786509803205	393
1	2202	195.786509803205	394
1	2202	195.786509803205	395
1	2225	196.96565639972	396
1	2225	196.96565639972	397
1	2225	196.96565639972	398
1	2225	196.96565639972	399
1	2250	199.65805121245	400
1	2250	199.65805121245	401
1	2250	199.65805121245	402
1	2250	199.65805121245	403
1	2273	200.944561584264	404
1	2273	200.944561584264	405
1	2273	200.944561584264	406
1	2273	200.944561584264	407
1	2296	202.360950969641	408
1	2296	202.360950969641	409
1	2296	202.360950969641	410
1	2296	202.360950969641	411
1	2319	204.054930724837	412
1	2319	204.054930724837	413
1	2319	204.054930724837	414
1	2319	204.054930724837	415
1	2342	205.377304843122	416
1	2342	205.377304843122	417
1	2342	205.377304843122	418
1	2342	205.377304843122	419
1	2367	208.458215456907	420
1	2367	208.458215456907	421
1	2367	208.458215456907	422
1	2367	208.458215456907	423
1	2390	209.834050116638	424
1	2390	209.834050116638	425
1	2390	209.834050116638	426
1	2390	209.834050116638	427
1	2413	211.69239239398	428
1	2413	211.69239239398	429
1	2413	211.69239239398	430
1	2413	211.69239239398	431
1	2436	212.849589418777	432
1	2436	212.849589418777	433
1	2436	212.849589418777	434
1	2436	212.849589418777	435
1	2446	214.82907659816	436
1	2446	214.82907659816	437
1	2446	214.82907659816	438
1	2446	214.82907659816	439
1	2473	219.159070206482	440
1	2473	219.159070206482	441
1	2473	219.159070206482	442
1	2473	219.159070206482	443
1	2496	220.991417402698	444
1	2496	220.991417402698	445
1	2496	220.991417402698	446
1	2496	220.991417402698	447
1	2523	225.3888857452	448
1	2523	225.3888857452	449
1	2523	225.3888857452	450
1	2523	225.3888857452	451
1	2546	226.564062606716	452
1	2546	226.564062606716	453
1	2546	226.564062606716	454
1	2546	226.564062606716	455
1	2569	227.837664408975	456
1	2569	227.837664408975	457
1	2569	227.837664408975	458
1	2569	227.837664408975	459
1	2579	229.709311893365	460
1	2579	229.709311893365	461
1	2579	229.709311893365	462
1	2579	229.709311893365	463
1	2604	232.597707346072	464
1	2604	232.597707346072	465
1	2604	232.597707346072	466
1	2604	232.597707346072	467
1	2627	233.955329369452	468
1	2627	233.955329369452	469
1	2627	233.955329369452	470
1	2627	233.955329369452	471
1	2650	235.61483003877	472
1	2650	235.61483003877	473
1	2650	235.61483003877	474
1	2650	235.61483003877	475
1	2673	236.881262628725	476
1	2673	236.881262628725	477
1	2673	236.881262628725	478
1	2673	236.881262628725	479
1	2696	237.906412262481	480
1	2696	237.906412262481	481
1	2696	237.906412262481	482
1	2696	237.906412262481	483
1	2716	239.888150320542	484
1	2716	239.888150320542	485
1	2716	239.888150320542	486
1	2716	239.888150320542	487
2	8	0.205690100955	0
2	8	0.205690100955	1
2	8	0.205690100955	2
2	32	2.138566763985	3
2	32	2.138566763985	4
2	32	2.138566763985	5
2	54	3.331295920388	6
2	54	3.331295920388	7
2	54	3.331295920388	8
2	103	7.870317581315	9
2	103	7.870317581315	10
2	103	7.870317581315	11
2	119	9.321828126316	12
2	119	9.321828126316	13
2	119	9.321828126316	14
2	141	10.902904144916	15
2	141	10.902904144916	16
2	141	10.902904144916	17
2	166	12.396331069257	18
2	166	12.396331069257	19
2	166	12.396331069257	20
2	195	14.077217225709	21
2	195	14.077217225709	22
2	195	14.077217225709	23
2	211	15.15577289215	24
2	211	15.15577289215	25
2	211	15.15577289215	26
2	234	16.145692355827	27
2	234	16.145692355827	28
2	234	16.145692355827	29
2	257	19.387022705335	30
2	257	19.387022705335	31
2	257	19.387022705335	32
2	279	20.481828368947	33
2	279	20.481828368947	34
2	279	20.481828368947	35
2	312	25.408131026743	36
2	312	25.408131026743	37
2	312	25.408131026743	38
2	333	29.01190756708	39
2	333	29.01190756708	40
2	333	29.01190756708	41
2	349	30.824221153472	42
2	349	30.824221153472	43
2	349	30.824221153472	44
2	379	34.118153721815	45
2	379	34.118153721815	46
2	379	34.118153721815	47
2	397	35.188281750925	48
2	397	35.188281750925	49
2	397	35.188281750925	50
2	423	37.972246773611	51
2	423	37.972246773611	52
2	423	37.972246773611	53
2	441	39.520799317986	54
2	441	39.520799317986	55
2	441	39.520799317986	56
2	467	42.805382271693	57
2	467	42.805382271693	58
2	467	42.805382271693	59
2	512	45.993980289666	60
2	512	45.993980289666	61
2	512	45.993980289666	62
2	526	47.626701243565	63
2	526	47.626701243565	64
2	526	47.626701243565	65
2	552	50.642407572141	66
2	552	50.642407572141	67
2	552	50.642407572141	68
2	575	52.266912134635	69
2	575	52.266912134635	70
2	575	52.266912134635	71
2	594	53.274566007083	72
2	594	53.274566007083	73
2	594	53.274566007083	74
2	618	55.088605029058	75
2	618	55.088605029058	76
2	618	55.088605029058	77
2	644	59.066512274091	78
2	644	59.066512274091	79
2	644	59.066512274091	80
2	679	60.825241461258	81
2	679	60.825241461258	82
2	679	60.825241461258	83
2	699	61.907379422481	84
2	699	61.907379422481	85
2	699	61.907379422481	86
2	717	64.345471668024	87
2	717	64.345471668024	88
2	717	64.345471668024	89
2	738	66.014816153514	90
2	738	66.014816153514	91
2	738	66.014816153514	92
2	761	67.184619596977	93
2	761	67.184619596977	94
2	761	67.184619596977	95
2	785	68.869521494648	96
2	785	68.869521494648	97
2	785	68.869521494648	98
2	807	70.768227954457	99
2	807	70.768227954457	100
2	807	70.768227954457	101
2	830	72.708110047483	102
2	830	72.708110047483	103
2	830	72.708110047483	104
2	853	73.751239178552	105
2	853	73.751239178552	106
2	853	73.751239178552	107
2	882	74.841531964511	108
2	882	74.841531964511	109
2	882	74.841531964511	110
2	908	80.238593453496	111
2	908	80.238593453496	112
2	908	80.238593453496	113
2	931	82.058448686279	114
2	931	82.058448686279	115
2	931	82.058448686279	116
2	958	83.239512957781	117
2	958	83.239512957781	118
2	958	83.239512957781	119
2	977	84.43949385299	120
2	977	84.43949385299	121
2	977	84.43949385299	122
2	1009	86.096242877635	123
2	1009	86.096242877635	124
2	1009	86.096242877635	125
2	1023	88.80297736269	126
2	1023	88.80297736269	127
2	1023	88.80297736269	128
2	1053	92.256562157269	129
2	1053	92.256562157269	130
2	1053	92.256562157269	131
2	1070	94.057120122371	132
2	1070	94.057120122371	133
2	1070	94.057120122371	134
2	1102	96.079390697587	135
2	1102	96.079390697587	136
2	1102	96.079390697587	137
2	1120	97.477430311362	138
2	1120	97.477430311362	139
2	1120	97.477430311362	140
2	1144	98.663763153357	141
2	1144	98.663763153357	142
2	1144	98.663763153357	143
2	1162	100.059474431888	144
2	1162	100.059474431888	145
2	1162	100.059474431888	146
2	1186	101.862505353075	147
2	1186	101.862505353075	148
2	1186	101.862505353075	149
2	1213	103.669682842037	150
2	1213	103.669682842037	151
2	1213	103.669682842037	152
2	1228	104.737004389382	153
2	1228	104.737004389382	154
2	1228	104.737004389382	155
2	1248	106.363307347943	156
2	1248	106.363307347943	157
2	1248	106.363307347943	158
2	1277	109.660540547854	159
2	1277	109.660540547854	160
2	1277	109.660540547854	161
2	1302	115.560809395548	162
2	1302	115.560809395548	163
2	1302	115.560809395548	164
2	1333	117.433831625421	165
2	1333	117.433831625421	166
2	1333	117.433831625421	167
2	1364	119.950876712381	168
2	1364	119.950876712381	169
2	1364	119.950876712381	170
2	1388	122.925346446232	171
2	1388	122.925346446232	172
2	1388	122.925346446232	173
2	1417	124.657487801003	174
2	1417	124.657487801003	175
2	1417	124.657487801003	176
2	1431	125.762501852103	177
2	1431	125.762501852103	178
2	1431	125.762501852103	179
2	1454	127.090075062948	180
2	1454	127.090075062948	181
2	1454	127.090075062948	182
2	1477	129.080243585105	183
2	1477	129.080243585105	184
2	1477	129.080243585105	185
2	1501	130.604143917731	186
2	1501	130.604143917731	187
2	1501	130.604143917731	188
2	1526	132.058108015852	189
2	1526	132.058108015852	190
2	1526	132.058108015852	191
2	1538	133.428257693317	192
2	1538	133.428257693317	193
2	1538	133.428257693317	194
2	1571	135.802519020379	195
2	1571	135.802519020379	196
2	1571	135.802519020379	197
2	1589	137.719065945947	198
2	1589	137.719065945947	199
2	1589	137.719065945947	200
2	1605	139.183080795522	201
2	1605	139.183080795522	202
2	1605	139.183080795522	203
2	1636	141.028502646768	204
2	1636	141.028502646768	205
2	1636	141.028502646768	206
2	1651	142.26777517818	207
2	1651	142.26777517818	208
2	1651	142.26777517818	209
2	1676	143.963455665297	210
2	1676	143.963455665297	211
2	1676	143.963455665297	212
2	1698	145.782687675419	213
2	1698	145.782687675419	214
2	1698	145.782687675419	215
2	1721	147.201212529379	216
2	1721	147.201212529379	217
2	1721	147.201212529379	218
2	1750	149.888642905653	219
2	1750	149.888642905653	220
2	1750	149.888642905653	221
2	1784	153.225210554485	222
2	1784	153.225210554485	223
2	1784	153.225210554485	224
2	1803	154.980336229831	225
2	1803	154.980336229831	226
2	1803	154.980336229831	227
2	1818	156.959319307579	228
2	1818	156.959319307579	229
2	1818	156.959319307579	230
2	1844	160.56602291026	231
2	1844	160.56602291026	232
2	1844	160.56602291026	233
2	1869	163.374345702888	234
2	1869	163.374345702888	235
2	1869	163.374345702888	236
2	1892	165.111830386632	237
2	1892	165.111830386632	238
2	1892	165.111830386632	239
2	1919	171.918750182939	240
2	1919	171.918750182939	241
2	1919	171.918750182939	242
2	1942	173.34744053399	243
2	1942	173.34744053399	244
2	1942	173.34744053399	245
2	1972	174.694358761606	246
2	1972	174.694358761606	247
2	1972	174.694358761606	248
2	1988	176.169217415683	249
2	1988	176.169217415683	250
2	1988	176.169217415683	251
2	2010	177.984179415978	252
2	2010	177.984179415978	253
2	2010	177.984179415978	254
2	2040	180.609536568939	255
2	2040	180.609536568939	256
2	2040	180.609536568939	257
2	2064	182.254637212208	258
2	2064	182.254637212208	259
2	2064	182.254637212208	260
2	2091	185.251828812358	261
2	2091	185.251828812358	262
2	2091	185.251828812358	263
2	2112	186.595052604687	264
2	2112	186.595052604687	265
2	2112	186.595052604687	266
2	2135	188.284707748244	267
2	2135	188.284707748244	268
2	2135	188.284707748244	269
2	2159	191.340943742412	270
2	2159	191.340943742412	271
2	2159	191.340943742412	272
2	2196	194.406444092214	273
2	2196	194.406444092214	274
2	2196	194.406444092214	275
2	2207	195.800488584431	276
2	2207	195.800488584431	277
2	2207	195.800488584431	278
2	2232	196.984568080424	279
2	2232	196.984568080424	280
2	2232	196.984568080424	281
2	2255	199.680828951046	282
2	2255	199.680828951046	283
2	2255	199.680828951046	284
2	2286	200.984472974924	285
2	2286	200.984472974924	286
2	2286	200.984472974924	287
2	2301	202.385255625088	288
2	2301	202.385255625088	289
2	2301	202.385255625088	290
2	2333	204.115846663764	291
2	2333	204.115846663764	292
2	2333	204.115846663764	293
2	2347	205.38756290684	294
2	2347	205.38756290684	295
2	2347	205.38756290684	296
2	2372	208.474954582641	297
2	2372	208.474954582641	298
2	2372	208.474954582641	299
2	2400	209.878753471165	300
2	2400	209.878753471165	301
2	2400	209.878753471165	302
2	2426	211.751592397577	303
2	2426	211.751592397577	304
2	2426	211.751592397577	305
2	2452	214.843013905819	306
2	2452	214.843013905819	307
2	2452	214.843013905819	308
2	2478	219.170591414275	309
2	2478	219.170591414275	310
2	2478	219.170591414275	311
2	2502	221.00473462001	312
2	2502	221.00473462001	313
2	2502	221.00473462001	314
2	2533	225.425821292683	315
2	2533	225.425821292683	316
2	2533	225.425821292683	317
2	2551	226.575231154931	318
2	2551	226.575231154931	319
2	2551	226.575231154931	320
2	2585	229.72492985781	321
2	2585	229.72492985781	322
2	2585	229.72492985781	323
2	2609	232.609737830239	324
2	2609	232.609737830239	325
2	2609	232.609737830239	326
2	2633	233.977029573769	327
2	2633	233.977029573769	328
2	2633	233.977029573769	329
2	2664	235.646339638644	330
2	2664	235.646339638644	331
2	2664	235.646339638644	332
2	2680	236.903178792731	333
2	2680	236.903178792731	334
2	2680	236.903178792731	335
2	2710	237.943776762633	336
2	2710	237.943776762633	337
2	2710	237.943776762633	338
2	2725	239.912982284084	339
2	2725	239.912982284084	340
2	2725	239.912982284084	341
3	12	0.217751247295	0
3	12	0.217751247295	1
3	12	0.217751247295	2
3	43	2.193002594483	3
3	43	2.193002594483	4
3	43	2.193002594483	5
3	64	3.34233117391	6
3	64	3.34233117391	7
3	64	3.34233117391	8
3	87	6.221679371396	9
3	87	6.221679371396	10
3	87	6.221679371396	11
3	107	7.883869058292	12
3	107	7.883869058292	13
3	107	7.883869058292	14
3	128	9.340550294439	15
3	128	9.340550294439	16
3	128	9.340550294439	17
3	150	10.929375090519	18
3	150	10.929375090519	19
3	150	10.929375090519	20
3	176	12.407791061395	21
3	176	12.407791061395	22
3	176	12.407791061395	23
3	196	14.077928387542	24
3	196	14.077928387542	25
3	196	14.077928387542	26
3	222	15.225002922805	27
3	222	15.225002922805	28
3	222	15.225002922805	29
3	261	19.405463956341	30
3	261	19.405463956341	31
3	261	19.405463956341	32
3	305	25.39648066276	33
3	305	25.39648066276	34
3	305	25.39648066276	35
3	337	29.036286523589	36
3	337	29.036286523589	37
3	337	29.036286523589	38
3	360	30.852996641156	39
3	360	30.852996641156	40
3	360	30.852996641156	41
3	385	34.140975120435	42
3	385	34.140975120435	43
3	385	34.140975120435	44
3	405	35.199494822101	45
3	405	35.199494822101	46
3	405	35.199494822101	47
3	452	39.545592959658	48
3	452	39.545592959658	49
3	452	39.545592959658	50
3	477	42.81824177675	51
3	477	42.81824177675	52
3	477	42.81824177675	53
3	511	45.98429637017	54
3	511	45.98429637017	55
3	511	45.98429637017	56
3	531	47.639769257834	57
3	531	47.639769257834	58
3	531	47.639769257834	59
3	558	50.64881436736	60
3	558	50.64881436736	61
3	558	50.64881436736	62
3	580	52.268663654751	63
3	580	52.268663654751	64
3	580	52.268663654751	65
3	603	53.289242534847	66
3	603	53.289242534847	67
3	603	53.289242534847	68
3	624	55.101072771037	69
3	624	55.101072771037	70
3	624	55.101072771037	71
3	648	59.083766023943	72
3	648	59.083766023943	73
3	648	59.083766023943	74
3	675	60.807510016188	75
3	675	60.807510016188	76
3	675	60.807510016188	77
3	696	61.900408023137	78
3	696	61.900408023137	79
3	696	61.900408023137	80
3	727	64.360770977896	81
3	727	64.360770977896	82
3	727	64.360770977896	83
3	744	66.02656439304	84
3	744	66.02656439304	85
3	744	66.02656439304	86
3	773	67.225159219676	87
3	773	67.225159219676	88
3	773	67.225159219676	89
3	796	68.907509575248	90
3	796	68.907509575248	91
3	796	68.907509575248	92
3	816	70.818556553348	93
3	816	70.818556553348	94
3	816	70.818556553348	95
3	842	72.735483320879	96
3	842	72.735483320879	97
3	842	72.735483320879	98
3	865	73.779329049048	99
3	865	73.779329049048	100
3	865	73.779329049048	101
3	881	74.837147156159	102
3	881	74.837147156159	103
3	881	74.837147156159	104
3	915	80.253716282505	105
3	915	80.253716282505	106
3	915	80.253716282505	107
3	940	82.075412936336	108
3	940	82.075412936336	109
3	940	82.075412936336	110
3	966	83.259590660006	111
3	966	83.259590660006	112
3	966	83.259590660006	113
3	987	84.474311670486	114
3	987	84.474311670486	115
3	987	84.474311670486	116
3	1005	86.076901024557	117
3	1005	86.076901024557	118
3	1005	86.076901024557	119
3	1034	88.81918419837	120
3	1034	88.81918419837	121
3	1034	88.81918419837	122
3	1059	92.270416560425	123
3	1059	92.270416560425	124
3	1059	92.270416560425	125
3	1075	94.071103321699	126
3	1075	94.071103321699	127
3	1075	94.071103321699	128
3	1101	96.076105103322	129
3	1101	96.076105103322	130
3	1101	96.076105103322	131
3	1128	97.500537695783	132
3	1128	97.500537695783	133
3	1128	97.500537695783	134
3	1145	98.671032168977	135
3	1145	98.671032168977	136
3	1145	98.671032168977	137
3	1167	100.079039398512	138
3	1167	100.079039398512	139
3	1167	100.079039398512	140
3	1194	101.873534899589	141
3	1194	101.873534899589	142
3	1194	101.873534899589	143
3	1217	103.68218808286	144
3	1217	103.68218808286	145
3	1217	103.68218808286	146
3	1237	104.777467094167	147
3	1237	104.777467094167	148
3	1237	104.777467094167	149
3	1254	106.387127517888	150
3	1254	106.387127517888	151
3	1254	106.387127517888	152
3	1285	109.683304956167	153
3	1285	109.683304956167	154
3	1285	109.683304956167	155
3	1314	115.613290525424	156
3	1314	115.613290525424	157
3	1314	115.613290525424	158
3	1334	117.435235030358	159
3	1334	117.435235030358	160
3	1334	117.435235030358	161
3	1371	119.962824817055	162
3	1371	119.962824817055	163
3	1371	119.962824817055	164
3	1397	122.959424070591	165
3	1397	122.959424070591	166
3	1397	122.959424070591	167
3	1416	124.657370498393	168
3	1416	124.657370498393	169
3	1416	124.657370498393	170
3	1443	125.802465519894	171
3	1443	125.802465519894	172
3	1443	125.802465519894	173
3	1459	127.107370271503	174
3	1459	127.107370271503	175
3	1459	127.107370271503	176
3	1482	129.091052590382	177
3	1482	129.091052590382	178
3	1482	129.091052590382	179
3	1508	130.620907706303	180
3	1508	130.620907706303	181
3	1508	130.620907706303	182
3	1547	133.438795783472	183
3	1547	133.438795783472	184
3	1547	133.438795783472	185
3	1567	135.786128385991	186
3	1567	135.786128385991	187
3	1567	135.786128385991	188
3	1588	137.716734737718	189
3	1588	137.716734737718	190
3	1588	137.716734737718	191
3	1615	139.218574390243	192
3	1615	139.218574390243	193
3	1615	139.218574390243	194
3	1640	141.040189114904	195
3	1640	141.040189114904	196
3	1640	141.040189114904	197
3	1657	142.279480810087	198
3	1657	142.279480810087	199
3	1657	142.279480810087	200
3	1681	143.97103546295	201
3	1681	143.97103546295	202
3	1681	143.97103546295	203
3	1704	145.805461166425	204
3	1704	145.805461166425	205
3	1704	145.805461166425	206
3	1732	147.21983267519	207
3	1732	147.21983267519	208
3	1732	147.21983267519	209
3	1759	149.919800905444	210
3	1759	149.919800905444	211
3	1759	149.919800905444	212
3	1780	153.179417938476	213
3	1780	153.179417938476	214
3	1780	153.179417938476	215
3	1807	154.990361854365	216
3	1807	154.990361854365	217
3	1807	154.990361854365	218
3	1830	156.979287788329	219
3	1830	156.979287788329	220
3	1830	156.979287788329	221
3	1855	160.585440664587	222
3	1855	160.585440664587	223
3	1855	160.585440664587	224
3	1894	165.118889079357	225
3	1894	165.118889079357	226
3	1894	165.118889079357	227
3	1927	171.936486624219	228
3	1927	171.936486624219	229
3	1927	171.936486624219	230
3	1949	173.360491195687	231
3	1949	173.360491195687	232
3	1949	173.360491195687	233
3	1973	174.697264685676	234
3	1973	174.697264685676	235
3	1973	174.697264685676	236
3	1999	176.207532979798	237
3	1999	176.207532979798	238
3	1999	176.207532979798	239
3	2014	177.998062971103	240
3	2014	177.998062971103	241
3	2014	177.998062971103	242
3	2052	180.638355629647	243
3	2052	180.638355629647	244
3	2052	180.638355629647	245
3	2075	182.280051719411	246
3	2075	182.280051719411	247
3	2075	182.280051719411	248
3	2100	185.29024119583	249
3	2100	185.29024119583	250
3	2100	185.29024119583	251
3	2123	186.608145652644	252
3	2123	186.608145652644	253
3	2123	186.608145652644	254
3	2143	188.294731111167	255
3	2143	188.294731111167	256
3	2143	188.294731111167	257
3	2165	191.35474408762	258
3	2165	191.35474408762	259
3	2165	191.35474408762	260
3	2192	194.380695128334	261
3	2192	194.380695128334	262
3	2192	194.380695128334	263
3	2219	195.834940216119	264
3	2219	195.834940216119	265
3	2219	195.834940216119	266
3	2239	196.987133275232	267
3	2239	196.987133275232	268
3	2239	196.987133275232	269
3	2267	199.716520061274	270
3	2267	199.716520061274	271
3	2267	199.716520061274	272
3	2287	200.991165317332	273
3	2287	200.991165317332	274
3	2287	200.991165317332	275
3	2305	202.397918336974	276
3	2305	202.397918336974	277
3	2305	202.397918336974	278
3	2332	204.108224393317	279
3	2332	204.108224393317	280
3	2332	204.108224393317	281
3	2352	205.405473153836	282
3	2352	205.405473153836	283
3	2352	205.405473153836	284
3	2378	208.496445463893	285
3	2378	208.496445463893	286
3	2378	208.496445463893	287
3	2407	209.914304671135	288
3	2407	209.914304671135	289
3	2407	209.914304671135	290
3	2430	211.771657799724	291
3	2430	211.771657799724	292
3	2430	211.771657799724	293
3	2463	214.861929806137	294
3	2463	214.861929806137	295
3	2463	214.861929806137	296
3	2482	219.182162674394	297
3	2482	219.182162674394	298
3	2482	219.182162674394	299
3	2507	221.014022450065	300
3	2507	221.014022450065	301
3	2507	221.014022450065	302
3	2534	225.434243939035	303
3	2534	225.434243939035	304
3	2534	225.434243939035	305
3	2556	226.586057816901	306
3	2556	226.586057816901	307
3	2556	226.586057816901	308
3	2591	229.741541052712	309
3	2591	229.741541052712	310
3	2591	229.741541052712	311
3	2618	232.620870897105	312
3	2618	232.620870897105	313
3	2618	232.620870897105	314
3	2640	233.999087086809	315
3	2640	233.999087086809	316
3	2640	233.999087086809	317
3	2661	235.641718505801	318
3	2661	235.641718505801	319
3	2661	235.641718505801	320
3	2690	236.940626390991	321
3	2690	236.940626390991	322
3	2690	236.940626390991	323
3	2706	237.930694073154	324
3	2706	237.930694073154	325
3	2706	237.930694073154	326
3	2730	239.91735485289	327
3	2730	239.91735485289	328
3	2730	239.91735485289	329
4	15	0.227751247295	0
4	46	2.203002594483	1
4	69	3.35233117391	2
4	90	6.231679371396	3
4	154	10.939375090519	4
4	202	14.087928387542	5
4	264	19.415463956341	6
4	309	25.40648066276	7
4	340	29.046286523589	8
4	388	34.150975120435	9
4	409	35.209494822101	10
4	480	42.82824177675	11
4	515	45.99429637017	12
4	566	50.65881436736	13
4	586	52.278663654751	14
4	702	61.910408023137	15
4	730	64.370770977896	16
4	753	66.03656439304	17
4	845	72.745483320879	18
4	868	73.789329049048	19
4	918	80.263716282505	20
4	943	82.085412936336	21
4	969	83.269590660006	22
4	992	84.484311670486	23
4	1037	88.82918419837	24
4	1105	96.086105103322	25
4	1131	97.510537695783	26
4	1152	98.681032168977	27
4	1220	103.69218808286	28
4	1263	106.397127517888	29
4	1288	109.693304956167	30
4	1340	117.445235030358	31
4	1378	119.972824817055	32
4	1446	125.812465519894	33
4	1465	127.117370271503	34
4	1489	129.101052590382	35
4	1552	133.448795783472	36
4	1570	135.796128385991	37
4	1594	137.726734737718	38
4	1689	143.98103546295	39
4	1708	145.815461166425	40
4	1735	147.22983267519	41
4	1783	153.189417938476	42
4	1810	155.000361854365	43
4	1833	156.989287788329	44
4	1858	160.595440664587	45
4	1902	165.128889079357	46
4	1930	171.946486624219	47
4	1979	174.707264685676	48
4	2002	176.217532979798	49
4	2017	178.008062971103	50
4	2055	180.648355629647	51
4	2078	182.290051719411	52
4	2103	185.30024119583	53
4	2126	186.618145652644	54
4	2147	188.304731111167	55
4	2195	194.390695128334	56
4	2245	196.997133275232	57
4	2293	201.001165317332	58
4	2308	202.407918336974	59
4	2336	204.118224393317	60
4	2358	205.415473153836	61
4	2387	208.506445463893	62
4	2410	209.924304671135	63
4	2433	211.781657799724	64
4	2466	214.871929806137	65
4	2485	219.192162674394	66
4	2513	221.024022450065	67
4	2541	225.444243939035	68
4	2564	226.596057816901	69
4	2595	229.751541052712	70
4	2647	234.009087086809	71
4	2667	235.651718505801	72
4	2693	236.950626390991	73
4	2709	237.940694073154	74
4	2736	239.92735485289	75
5	16	0.231991012083	0
5	16	0.231991012083	1
5	16	0.231991012083	2
5	16	0.231991012083	3
5	35	2.14850032361	4
5	35	2.14850032361	5
5	35	2.14850032361	6
5	35	2.14850032361	7
5	55	3.331786336882	8
5	55	3.331786336882	9
5	55	3.331786336882	10
5	55	3.331786336882	11
5	82	6.19610715268	12
5	82	6.19610715268	13
5	82	6.19610715268	14
5	82	6.19610715268	15
5	98	7.835445127368	16
5	98	7.835445127368	17
5	98	7.835445127368	18
5	98	7.835445127368	19
5	118	9.318695507052	20
5	118	9.318695507052	21
5	118	9.318695507052	22
5	118	9.318695507052	23
5	145	10.916588250993	24
5	145	10.916588250993	25
5	145	10.916588250993	26
5	145	10.916588250993	27
5	165	12.392203304156	28
5	165	12.392203304156	29
5	165	12.392203304156	30
5	165	12.392203304156	31
5	187	14.053162038643	32
5	187	14.053162038643	33
5	187	14.053162038643	34
5	187	14.053162038643	35
5	217	15.169926239333	36
5	217	15.169926239333	37
5	217	15.169926239333	38
5	217	15.169926239333	39
5	235	16.150451036912	40
5	235	16.150451036912	41
5	235	16.150451036912	42
5	235	16.150451036912	43
5	265	19.420875542504	44
5	265	19.420875542504	45
5	265	19.420875542504	46
5	265	19.420875542504	47
5	277	20.473457346501	48
5	277	20.473457346501	49
5	277	20.473457346501	50
5	277	20.473457346501	51
5	300	25.38326971976	52
5	300	25.38326971976	53
5	300	25.38326971976	54
5	300	25.38326971976	55
5	325	28.974154089798	56
5	325	28.974154089798	57
5	325	28.974154089798	58
5	325	28.974154089798	59
5	355	30.84060475408	60
5	355	30.84060475408	61
5	355	30.84060475408	62
5	355	30.84060475408	63
5	373	34.105098020344	64
5	373	34.105098020344	65
5	373	34.105098020344	66
5	373	34.105098020344	67
5	396	35.181360792624	68
5	396	35.181360792624	69
5	396	35.181360792624	70
5	396	35.181360792624	71
5	422	37.967445624707	72
5	422	37.967445624707	73
5	422	37.967445624707	74
5	422	37.967445624707	75
5	440	39.519012417479	76
5	440	39.519012417479	77
5	440	39.519012417479	78
5	440	39.519012417479	79
5	466	42.801027733415	80
5	466	42.801027733415	81
5	466	42.801027733415	82
5	466	42.801027733415	83
5	488	44.714922448174	84
5	488	44.714922448174	85
5	488	44.714922448174	86
5	488	44.714922448174	87
5	506	45.971945564005	88
5	506	45.971945564005	89
5	506	45.971945564005	90
5	506	45.971945564005	91
5	537	47.650196422494	92
5	537	47.650196422494	93
5	537	47.650196422494	94
5	537	47.650196422494	95
5	551	50.636331467747	96
5	551	50.636331467747	97
5	551	50.636331467747	98
5	551	50.636331467747	99
5	574	52.258210832388	100
5	574	52.258210832388	101
5	574	52.258210832388	102
5	574	52.258210832388	103
5	595	53.278483187404	104
5	595	53.278483187404	105
5	595	53.278483187404	106
5	595	53.278483187404	107
5	625	55.10114309269	108
5	625	55.10114309269	109
5	625	55.10114309269	110
5	625	55.10114309269	111
5	652	59.100250458162	112
5	652	59.100250458162	113
5	652	59.100250458162	114
5	652	59.100250458162	115
5	670	60.776880444263	116
5	670	60.776880444263	117
5	670	60.776880444263	118
5	670	60.776880444263	119
5	690	61.885194139316	120
5	690	61.885194139316	121
5	690	61.885194139316	122
5	690	61.885194139316	123
5	716	64.343107632238	124
5	716	64.343107632238	125
5	716	64.343107632238	126
5	716	64.343107632238	127
5	740	66.020835417197	128
5	740	66.020835417197	129
5	740	66.020835417197	130
5	740	66.020835417197	131
5	768	67.201289377223	132
5	768	67.201289377223	133
5	768	67.201289377223	134
5	768	67.201289377223	135
5	791	68.88201762951	136
5	791	68.88201762951	137
5	791	68.88201762951	138
5	791	68.88201762951	139
5	811	70.807706703017	140
5	811	70.807706703017	141
5	811	70.807706703017	142
5	811	70.807706703017	143
5	834	72.71845101921	144
5	834	72.71845101921	145
5	834	72.71845101921	146
5	834	72.71845101921	147
5	858	73.766135291483	148
5	858	73.766135291483	149
5	858	73.766135291483	150
5	858	73.766135291483	151
5	876	74.827042972745	152
5	876	74.827042972745	153
5	876	74.827042972745	154
5	876	74.827042972745	155
5	919	80.272182908163	156
5	919	80.272182908163	157
5	919	80.272182908163	158
5	919	80.272182908163	159
5	932	82.063950359128	160
5	932	82.063950359128	161
5	932	82.063950359128	162
5	932	82.063950359128	163
5	957	83.229965942261	164
5	957	83.229965942261	165
5	957	83.229965942261	166
5	957	83.229965942261	167
5	981	84.456776781116	168
5	981	84.456776781116	169
5	981	84.456776781116	170
5	981	84.456776781116	171
5	1000	86.063126756427	172
5	1000	86.063126756427	173
5	1000	86.063126756427	174
5	1000	86.063126756427	175
5	1024	88.807223400413	176
5	1024	88.807223400413	177
5	1024	88.807223400413	178
5	1024	88.807223400413	179
5	1047	92.245744755001	180
5	1047	92.245744755001	181
5	1047	92.245744755001	182
5	1047	92.245744755001	183
5	1078	94.079461895301	184
5	1078	94.079461895301	185
5	1078	94.079461895301	186
5	1078	94.079461895301	187
5	1096	96.061969505131	188
5	1096	96.061969505131	189
5	1096	96.061969505131	190
5	1096	96.061969505131	191
5	1117	97.473930977903	192
5	1117	97.473930977903	193
5	1117	97.473930977903	194
5	1117	97.473930977903	195
5	1139	98.643289068854	196
5	1139	98.643289068854	197
5	1139	98.643289068854	198
5	1139	98.643289068854	199
5	1166	100.072349514944	200
5	1166	100.072349514944	201
5	1166	100.072349514944	202
5	1166	100.072349514944	203
5	1185	101.86131660636	204
5	1185	101.86131660636	205
5	1185	101.86131660636	206
5	1185	101.86131660636	207
5	1205	103.647258667162	208
5	1205	103.647258667162	209
5	1205	103.647258667162	210
5	1205	103.647258667162	211
5	1232	104.761825150925	212
5	1232	104.761825150925	213
5	1232	104.761825150925	214
5	1232	104.761825150925	215
5	1253	106.382494139989	216
5	1253	106.382494139989	217
5	1253	106.382494139989	218
5	1253	106.382494139989	219
5	1276	109.655500134221	220
5	1276	109.655500134221	221
5	1276	109.655500134221	222
5	1276	109.655500134221	223
5	1303	115.564082835387	224
5	1303	115.564082835387	225
5	1303	115.564082835387	226
5	1303	115.564082835387	227
5	1325	117.410997308863	228
5	1325	117.410997308863	229
5	1325	117.410997308863	230
5	1325	117.410997308863	231
5	1349	118.614621673722	232
5	1349	118.614621673722	233
5	1349	118.614621673722	234
5	1349	118.614621673722	235
5	1370	119.961198726397	236
5	1370	119.961198726397	237
5	1370	119.961198726397	238
5	1370	119.961198726397	239
5	1389	122.926794759349	240
5	1389	122.926794759349	241
5	1389	122.926794759349	242
5	1389	122.926794759349	243
5	1408	124.638360319307	244
5	1408	124.638360319307	245
5	1408	124.638360319307	246
5	1408	124.638360319307	247
5	1433	125.76451804109	248
5	1433	125.76451804109	249
5	1433	125.76451804109	250
5	1433	125.76451804109	251
5	1460	127.107881626662	252
5	1460	127.107881626662	253
5	1460	127.107881626662	254
5	1460	127.107881626662	255
5	1481	129.090414712898	256
5	1481	129.090414712898	257
5	1481	129.090414712898	258
5	1481	129.090414712898	259
5	1504	130.613875451681	260
5	1504	130.613875451681	261
5	1504	130.613875451681	262
5	1504	130.613875451681	263
5	1537	133.428142165811	264
5	1537	133.428142165811	265
5	1537	133.428142165811	266
5	1537	133.428142165811	267
5	1562	135.770765182636	268
5	1562	135.770765182636	269
5	1562	135.770765182636	270
5	1562	135.770765182636	271
5	1582	137.706087110281	272
5	1582	137.706087110281	273
5	1582	137.706087110281	274
5	1582	137.706087110281	275
5	1609	139.198988817565	276
5	1609	139.198988817565	277
5	1609	139.198988817565	278
5	1609	139.198988817565	279
5	1629	141.017574126241	280
5	1629	141.017574126241	281
5	1629	141.017574126241	282
5	1629	141.017574126241	283
5	1652	142.273705125231	284
5	1652	142.273705125231	285
5	1652	142.273705125231	286
5	1652	142.273705125231	287
5	1674	143.959273927581	288
5	1674	143.959273927581	289
5	1674	143.959273927581	290
5	1674	143.959273927581	291
5	1705	145.808824707215	292
5	1705	145.808824707215	293
5	1705	145.808824707215	294
5	1705	145.808824707215	295
5	1722	147.203065492045	296
5	1722	147.203065492045	297
5	1722	147.203065492045	298
5	1722	147.203065492045	299
5	1754	149.908951343139	300
5	1754	149.908951343139	301
5	1754	149.908951343139	302
5	1754	149.908951343139	303
5	1775	153.168747220027	304
5	1775	153.168747220027	305
5	1775	153.168747220027	306
5	1775	153.168747220027	307
5	1795	154.965080703471	308
5	1795	154.965080703471	309
5	1795	154.965080703471	310
5	1795	154.965080703471	311
5	1819	156.966274707706	312
5	1819	156.966274707706	313
5	1819	156.966274707706	314
5	1819	156.966274707706	315
5	1847	160.57368585794	316
5	1847	160.57368585794	317
5	1847	160.57368585794	318
5	1847	160.57368585794	319
5	1868	163.370784962383	320
5	1868	163.370784962383	321
5	1868	163.370784962383	322
5	1868	163.370784962383	323
5	1887	165.099508964145	324
5	1887	165.099508964145	325
5	1887	165.099508964145	326
5	1887	165.099508964145	327
5	1918	171.914459448919	328
5	1918	171.914459448919	329
5	1918	171.914459448919	330
5	1918	171.914459448919	331
5	1945	173.356782405304	332
5	1945	173.356782405304	333
5	1945	173.356782405304	334
5	1945	173.356782405304	335
5	1964	174.682827722644	336
5	1964	174.682827722644	337
5	1964	174.682827722644	338
5	1964	174.682827722644	339
5	1989	176.173666963764	340
5	1989	176.173666963764	341
5	1989	176.173666963764	342
5	1989	176.173666963764	343
5	2018	178.008441159807	344
5	2018	178.008441159807	345
5	2018	178.008441159807	346
5	2018	178.008441159807	347
5	2041	180.611652571667	348
5	2041	180.611652571667	349
5	2041	180.611652571667	350
5	2041	180.611652571667	351
5	2070	182.268710196633	352
5	2070	182.268710196633	353
5	2070	182.268710196633	354
5	2070	182.268710196633	355
5	2092	185.253488670329	356
5	2092	185.253488670329	357
5	2092	185.253488670329	358
5	2092	185.253488670329	359
5	2113	186.596962331854	360
5	2113	186.596962331854	361
5	2113	186.596962331854	362
5	2113	186.596962331854	363
5	2134	188.284065115356	364
5	2134	188.284065115356	365
5	2134	188.284065115356	366
5	2134	188.284065115356	367
5	2160	191.346070959296	368
5	2160	191.346070959296	369
5	2160	191.346070959296	370
5	2160	191.346070959296	371
5	2187	194.362746130928	372
5	2187	194.362746130928	373
5	2187	194.362746130928	374
5	2187	194.362746130928	375
5	2211	195.820999265155	376
5	2211	195.820999265155	377
5	2211	195.820999265155	378
5	2211	195.820999265155	379
5	2231	196.977011570007	380
5	2231	196.977011570007	381
5	2231	196.977011570007	382
5	2231	196.977011570007	383
5	2256	199.687245530975	384
5	2256	199.687245530975	385
5	2256	199.687245530975	386
5	2256	199.687245530975	387
5	2281	200.97096896969	388
5	2281	200.97096896969	389
5	2281	200.97096896969	390
5	2281	200.97096896969	391
5	2309	202.418700429525	392
5	2309	202.418700429525	393
5	2309	202.418700429525	394
5	2309	202.418700429525	395
5	2327	204.094526416598	396
5	2327	204.094526416598	397
5	2327	204.094526416598	398
5	2327	204.094526416598	399
5	2355	205.413702412459	400
5	2355	205.413702412459	401
5	2355	205.413702412459	402
5	2355	205.413702412459	403
5	2377	208.488957038587	404
5	2377	208.488957038587	405
5	2377	208.488957038587	406
5	2377	208.488957038587	407
5	2395	209.850487101723	408
5	2395	209.850487101723	409
5	2395	209.850487101723	410
5	2395	209.850487101723	411
5	2418	211.707176567199	412
5	2418	211.707176567199	413
5	2418	211.707176567199	414
5	2418	211.707176567199	415
5	2453	214.847545959668	416
5	2453	214.847545959668	417
5	2453	214.847545959668	418
5	2453	214.847545959668	419
5	2486	219.194437125064	420
5	2486	219.194437125064	421
5	2486	219.194437125064	422
5	2486	219.194437125064	423
5	2501	221.003956157068	424
5	2501	221.003956157068	425
5	2501	221.003956157068	426
5	2501	221.003956157068	427
5	2528	225.407814430699	428
5	2528	225.407814430699	429
5	2528	225.407814430699	430
5	2528	225.407814430699	431
5	2552	226.576286686558	432
5	2552	226.576286686558	433
5	2552	226.576286686558	434
5	2552	226.576286686558	435
5	2592	229.741984600101	436
5	2592	229.741984600101	437
5	2592	229.741984600101	438
5	2592	229.741984600101	439
5	2610	232.610577271591	440
5	2610	232.610577271591	441
5	2610	232.610577271591	442
5	2610	232.610577271591	443
5	2639	233.991335885515	444
5	2639	233.991335885515	445
5	2639	233.991335885515	446
5	2639	233.991335885515	447
5	2655	235.629351518956	448
5	2655	235.629351518956	449
5	2655	235.629351518956	450
5	2655	235.629351518956	451
5	2678	236.896215605117	452
5	2678	236.896215605117	453
5	2678	236.896215605117	454
5	2678	236.896215605117	455
5	2701	237.918761692787	456
5	2701	237.918761692787	457
5	2701	237.918761692787	458
5	2701	237.918761692787	459
5	2722	239.903591121617	460
5	2722	239.903591121617	461
5	2722	239.903591121617	462
5	2722	239.903591121617	463
6	21	0.260719248752	0
6	21	0.260719248752	1
6	31	2.132866871297	2
6	31	2.132866871297	3
6	56	3.332758794486	4
6	56	3.332758794486	5
6	79	6.172317315069	6
6	79	6.172317315069	7
6	127	9.334040817386	8
6	127	9.334040817386	9
6	151	10.934319351625	10
6	151	10.934319351625	11
6	164	12.386721251794	12
6	164	12.386721251794	13
6	188	14.053549361803	14
6	188	14.053549361803	15
6	210	15.146167711821	16
6	210	15.146167711821	17
6	233	16.143858850665	18
6	233	16.143858850665	19
6	254	19.355967468543	20
6	254	19.355967468543	21
6	278	20.473473112316	22
6	278	20.473473112316	23
6	306	25.397745329441	24
6	306	25.397745329441	25
6	330	28.994219275853	26
6	330	28.994219275853	27
6	348	30.819541346517	28
6	348	30.819541346517	29
6	374	34.113753325514	30
6	374	34.113753325514	31
6	406	35.208452830653	32
6	406	35.208452830653	33
6	421	37.963205695116	34
6	421	37.963205695116	35
6	446	39.530416502699	36
6	446	39.530416502699	37
6	465	42.798129612643	38
6	465	42.798129612643	39
6	489	44.721776640772	40
6	489	44.721776640772	41
6	503	45.961087207957	42
6	503	45.961087207957	43
6	527	47.634202150123	44
6	527	47.634202150123	45
6	557	50.646431968352	46
6	557	50.646431968352	47
6	607	53.30851463434	48
6	607	53.30851463434	49
6	617	55.083371181698	50
6	617	55.083371181698	51
6	657	59.121658562548	52
6	657	59.121658562548	53
6	667	60.76665460901	54
6	667	60.76665460901	55
6	695	61.897005040952	56
6	695	61.897005040952	57
6	715	64.336387029826	58
6	715	64.336387029826	59
6	739	66.017756936196	60
6	739	66.017756936196	61
6	762	67.187499982865	62
6	762	67.187499982865	63
6	784	68.86627273802	64
6	784	68.86627273802	65
6	817	70.820813781315	66
6	817	70.820813781315	67
6	835	72.722616027743	68
6	835	72.722616027743	69
6	857	73.765016730909	70
6	857	73.765016730909	71
6	883	74.846679772697	72
6	883	74.846679772697	73
6	909	80.239336168078	74
6	909	80.239336168078	75
6	944	82.103001371948	76
6	944	82.103001371948	77
6	954	83.217623809407	78
6	954	83.217623809407	79
6	986	84.468543411871	80
6	986	84.468543411871	81
6	1022	88.799271609349	82
6	1022	88.799271609349	83
6	1048	92.251977345537	84
6	1048	92.251977345537	85
6	1071	94.065107711422	86
6	1071	94.065107711422	87
6	1093	96.010375261327	88
6	1093	96.010375261327	89
6	1116	97.464123510701	90
6	1116	97.464123510701	91
6	1146	98.672901587833	92
6	1146	98.672901587833	93
6	1172	100.087931086747	94
6	1172	100.087931086747	95
6	1210	103.659585880625	96
6	1210	103.659585880625	97
6	1252	106.380708561076	98
6	1252	106.380708561076	99
6	1273	109.644641002452	100
6	1273	109.644641002452	101
6	1311	115.575156344206	102
6	1311	115.575156344206	103
6	1326	117.414118663817	104
6	1326	117.414118663817	105
6	1348	118.614046797663	106
6	1348	118.614046797663	107
6	1363	119.943726503905	108
6	1363	119.943726503905	109
6	1409	124.640683207125	110
6	1409	124.640683207125	111
6	1432	125.762738479305	112
6	1432	125.762738479305	113
6	1455	127.097889000678	114
6	1455	127.097889000678	115
6	1490	129.106197186197	116
6	1490	129.106197186197	117
6	1500	130.599088298579	118
6	1500	130.599088298579	119
6	1523	132.028071564481	120
6	1523	132.028071564481	121
6	1539	133.430570701412	122
6	1539	133.430570701412	123
6	1583	137.709926154298	124
6	1583	137.709926154298	125
6	1614	139.214964124743	126
6	1614	139.214964124743	127
6	1628	141.01529350901	128
6	1628	141.01529350901	129
6	1653	142.276157011226	130
6	1653	142.276157011226	131
6	1675	143.962843564736	132
6	1675	143.962843564736	133
6	1697	145.779085296525	134
6	1697	145.779085296525	135
6	1720	147.19919684579	136
6	1720	147.19919684579	137
6	1760	149.921500313663	138
6	1760	149.921500313663	139
6	1796	154.966173688473	140
6	1796	154.966173688473	141
6	1820	156.967470480086	142
6	1820	156.967470480086	143
6	1843	160.562946166953	144
6	1843	160.562946166953	145
6	1877	163.401138073576	146
6	1877	163.401138073576	147
6	1893	165.113667551977	148
6	1893	165.113667551977	149
6	1931	171.960886615207	150
6	1931	171.960886615207	151
6	1941	173.343986076781	152
6	1941	173.343986076781	153
6	1965	174.68289348802	154
6	1965	174.68289348802	155
6	1987	176.16426408149	156
6	1987	176.16426408149	157
6	2023	178.02133399301	158
6	2023	178.02133399301	159
6	2042	180.611970166717	160
6	2042	180.611970166717	161
6	2063	182.252611864353	162
6	2063	182.252611864353	163
6	2088	185.232541402298	164
6	2088	185.232541402298	165
6	2111	186.592512011664	166
6	2111	186.592512011664	167
6	2144	188.301822059839	168
6	2144	188.301822059839	169
6	2164	191.352533463981	170
6	2164	191.352533463981	171
6	2184	194.339442800668	172
6	2184	194.339442800668	173
6	2212	195.82147227246	174
6	2212	195.82147227246	175
6	2230	196.976023748288	176
6	2230	196.976023748288	177
6	2260	199.694789417397	178
6	2260	199.694789417397	179
6	2278	200.958254739917	180
6	2278	200.958254739917	181
6	2314	202.432565361483	182
6	2314	202.432565361483	183
6	2324	204.066152796791	184
6	2324	204.066152796791	185
6	2351	205.400375893575	186
6	2351	205.400375893575	187
6	2376	208.488864736043	188
6	2376	208.488864736043	189
6	2401	209.879311914637	190
6	2401	209.879311914637	191
6	2419	211.709707205154	192
6	2419	211.709707205154	193
6	2441	212.860700845101	194
6	2441	212.860700845101	195
6	2451	214.840175864291	196
6	2451	214.840175864291	197
6	2491	219.219620478896	198
6	2491	219.219620478896	199
6	2514	221.041586731883	200
6	2514	221.041586731883	201
6	2535	225.434398804546	202
6	2535	225.434398804546	203
6	2561	226.594613654843	204
6	2561	226.594613654843	205
6	2574	227.849586873577	206
6	2574	227.849586873577	207
6	2584	229.724078001273	208
6	2584	229.724078001273	209
6	2622	232.637480856035	210
6	2622	232.637480856035	211
6	2632	233.974462842494	212
6	2632	233.974462842494	213
6	2656	235.63563574954	214
6	2656	235.63563574954	215
6	2679	236.902609660354	216
6	2679	236.902609660354	217
6	2721	239.899256624489	218
6	2721	239.899256624489	219

