version 2
run General-4-20231008-07:01:12-16668
attr configname General
attr datetime 20231008-07:01:12
attr experiment General
attr inifile omnetpp.ini
attr iterationvars ""
attr iterationvarsf ""
attr measurement ""
attr network Network2
attr processid 16668
attr repetition 4
attr replication #4
attr resultdir results
attr runnumber 4
attr seedset 4
param Network2.node[*].transmissionTime "uniform(1s, 2s)"
param Network2.node[*].delayTime "uniform(0.01s, 0.2s)"
param Network2.node[*].processingTime exponential(0.01s)
param Network2.node[*].lossProbability 0.25

vector 0 Network2.node[0] txVector ETV
vector 1 Network2.node[1] txVector ETV
vector 2 Network2.node[6] txVector ETV
vector 3 Network2.node[3] txVector ETV
vector 4 Network2.node[2] txVector ETV
vector 5 Network2.node[4] txVector ETV
vector 6 Network2.node[5] rxVector ETV
0	1	0.193735669288	0
0	24	2.094357123985	1
0	47	3.957350359219	2
0	49	5.403699559779	3
0	51	6.845048093158	4
0	74	7.910757631916	5
0	97	9.548367880672	6
0	120	10.801277489789	7
0	143	12.705945079835	8
0	153	14.512961626207	9
0	173	16.104835271989	10
0	193	17.891588417967	11
0	213	19.212204064862	12
0	236	21.149338570344	13
0	238	22.32311836529	14
0	240	24.26570422078	15
0	263	25.731193897468	16
0	286	27.235094880606	17
0	309	29.160903476332	18
0	332	30.3878844957	19
0	355	32.356558625739	20
0	362	34.240601012636	21
0	385	35.615941157717	22
0	387	36.699841540226	23
0	410	38.31520355508	24
0	433	39.585569036811	25
0	456	40.676161397866	26
0	458	41.856011033676	27
0	481	43.29303450758	28
0	491	45.162460425323	29
0	514	47.114129017493	30
0	537	48.151874198964	31
0	560	49.220843633091	32
0	583	50.647114796251	33
0	606	52.608717980714	34
0	629	54.556775787765	35
0	648	55.801575062251	36
0	671	57.106390770911	37
0	694	58.515471842061	38
0	717	60.218601720096	39
0	740	61.818133939677	40
0	763	63.19142176785	41
0	786	65.072459003809	42
0	809	66.883122407054	43
0	811	68.499244395332	44
0	813	69.597280240772	45
0	831	71.257138490133	46
0	854	72.314750292493	47
0	864	73.496825298915	48
0	887	75.460574740699	49
0	910	76.68929852002	50
0	933	77.987625515709	51
0	956	79.787211923782	52
0	958	81.244971131362	53
0	960	83.203089923287	54
0	983	85.088547826667	55
0	1006	87.020158926879	56
0	1029	88.209715802378	57
0	1052	89.591120788517	58
0	1072	90.598509885293	59
0	1095	92.434886486192	60
0	1118	93.891129877806	61
0	1138	94.999140904673	62
0	1161	96.486910845075	63
0	1181	98.462792496352	64
0	1197	100.072713663491	65
0	1220	101.554474091545	66
0	1243	102.625212077672	67
0	1266	103.639679304479	68
0	1268	104.931624103027	69
0	1287	106.086197501436	70
0	1310	107.735719094673	71
0	1312	109.238887913447	72
0	1335	111.103030753011	73
0	1358	112.234410649786	74
0	1381	113.826485041917	75
0	1401	114.952990021246	76
0	1424	116.796390366663	77
0	1447	118.422537141635	78
0	1449	119.449390497447	79
0	1472	121.357164649914	80
0	1495	122.721794003311	81
0	1518	123.843509462585	82
0	1541	124.958678222883	83
0	1543	126.544171732308	84
0	1566	127.816978746948	85
0	1589	129.699598034534	86
0	1612	130.922528490347	87
0	1635	132.720060559145	88
0	1658	133.914074090698	89
0	1681	135.146335843175	90
0	1704	137.112930515006	91
0	1706	138.268236922256	92
0	1729	140.03624618232	93
0	1752	141.769452247459	94
0	1775	143.296453801373	95
0	1798	144.736151345463	96
0	1821	146.250793130526	97
0	1844	147.888075624516	98
0	1867	149.700169581843	99
0	1890	150.98656770719	100
0	1910	152.950196987873	101
0	1912	154.475564387085	102
0	1914	155.963184000149	103
0	1937	156.999533412203	104
0	1960	158.363072012009	105
0	1962	159.705476399435	106
0	1985	161.349339158431	107
0	2008	162.473326542571	108
0	2031	163.733371980179	109
0	2054	164.893529571982	110
0	2077	166.81791740625	111
0	2079	168.580224983784	112
0	2102	170.060526259401	113
0	2104	171.864047143999	114
0	2106	173.411060582771	115
0	2129	174.472541584092	116
0	2136	176.444135106559	117
0	2138	177.468622898375	118
0	2161	179.184834673693	119
0	2184	180.831790242735	120
0	2207	182.462931116037	121
0	2230	184.105844493881	122
0	2253	185.525027044509	123
0	2276	186.765170211131	124
0	2299	188.149342944306	125
0	2322	189.403189141462	126
0	2345	191.20291481928	127
0	2368	192.620024570423	128
0	2370	193.732325117961	129
0	2372	194.889436571552	130
0	2395	196.7292799907	131
0	2415	197.76663517153	132
0	2417	199.745263650474	133
0	2440	200.932039058228	134
0	2463	201.958677376547	135
0	2486	203.207464089078	136
0	2488	205.083825654742	137
0	2511	206.904581419584	138
0	2534	208.4952315408	139
0	2557	209.981187284385	140
0	2559	211.108946493753	141
0	2566	212.181886790014	142
0	2589	213.660125870184	143
0	2612	215.527772362969	144
0	2635	216.842097243221	145
0	2655	218.525865387331	146
0	2678	220.272568253494	147
0	2701	221.665200823845	148
0	2724	222.698879368065	149
0	2747	224.034024886482	150
0	2770	225.225993366374	151
0	2772	227.115306000851	152
0	2795	228.431721354995	153
0	2818	229.956950927313	154
0	2841	231.030861727122	155
0	2864	232.840375807296	156
0	2884	234.008366096226	157
0	2907	235.367483201596	158
0	2930	236.609888573802	159
0	2932	238.568393364475	160
1	3	0.205631491707	0
1	3	0.205631491707	1
1	3	0.205631491707	2
1	3	0.205631491707	3
1	26	2.145341055476	4
1	26	2.145341055476	5
1	26	2.145341055476	6
1	26	2.145341055476	7
1	53	6.856982256749	8
1	53	6.856982256749	9
1	53	6.856982256749	10
1	53	6.856982256749	11
1	76	7.925890843307	12
1	76	7.925890843307	13
1	76	7.925890843307	14
1	76	7.925890843307	15
1	99	9.558853540263	16
1	99	9.558853540263	17
1	99	9.558853540263	18
1	99	9.558853540263	19
1	122	10.816466491353	20
1	122	10.816466491353	21
1	122	10.816466491353	22
1	122	10.816466491353	23
1	145	12.717002912852	24
1	145	12.717002912852	25
1	145	12.717002912852	26
1	145	12.717002912852	27
1	155	14.552990133692	28
1	155	14.552990133692	29
1	155	14.552990133692	30
1	155	14.552990133692	31
1	175	16.126535628056	32
1	175	16.126535628056	33
1	175	16.126535628056	34
1	175	16.126535628056	35
1	195	17.923286203228	36
1	195	17.923286203228	37
1	195	17.923286203228	38
1	195	17.923286203228	39
1	215	19.229188638866	40
1	215	19.229188638866	41
1	215	19.229188638866	42
1	215	19.229188638866	43
1	242	24.290100904153	44
1	242	24.290100904153	45
1	242	24.290100904153	46
1	242	24.290100904153	47
1	265	25.750734328375	48
1	265	25.750734328375	49
1	265	25.750734328375	50
1	265	25.750734328375	51
1	288	27.257840697585	52
1	288	27.257840697585	53
1	288	27.257840697585	54
1	288	27.257840697585	55
1	311	29.185774423745	56
1	311	29.185774423745	57
1	311	29.185774423745	58
1	311	29.185774423745	59
1	334	30.414363630071	60
1	334	30.414363630071	61
1	334	30.414363630071	62
1	334	30.414363630071	63
1	357	32.366760064664	64
1	357	32.366760064664	65
1	357	32.366760064664	66
1	357	32.366760064664	67
1	364	34.250903275065	68
1	364	34.250903275065	69
1	364	34.250903275065	70
1	364	34.250903275065	71
1	389	36.712013542183	72
1	389	36.712013542183	73
1	389	36.712013542183	74
1	389	36.712013542183	75
1	412	38.326518636821	76
1	412	38.326518636821	77
1	412	38.326518636821	78
1	412	38.326518636821	79
1	435	39.603066517011	80
1	435	39.603066517011	81
1	435	39.603066517011	82
1	435	39.603066517011	83
1	460	41.886119460355	84
1	460	41.886119460355	85
1	460	41.886119460355	86
1	460	41.886119460355	87
1	483	43.307379450341	88
1	483	43.307379450341	89
1	483	43.307379450341	90
1	483	43.307379450341	91
1	493	45.183330867863	92
1	493	45.183330867863	93
1	493	45.183330867863	94
1	493	45.183330867863	95
1	516	47.13443785841	96
1	516	47.13443785841	97
1	516	47.13443785841	98
1	516	47.13443785841	99
1	539	48.184822786589	100
1	539	48.184822786589	101
1	539	48.184822786589	102
1	539	48.184822786589	103
1	562	49.23295244848	104
1	562	49.23295244848	105
1	562	49.23295244848	106
1	562	49.23295244848	107
1	585	50.661883527386	108
1	585	50.661883527386	109
1	585	50.661883527386	110
1	585	50.661883527386	111
1	608	52.638965115688	112
1	608	52.638965115688	113
1	608	52.638965115688	114
1	608	52.638965115688	115
1	631	54.590939631757	116
1	631	54.590939631757	117
1	631	54.590939631757	118
1	631	54.590939631757	119
1	650	55.812231518913	120
1	650	55.812231518913	121
1	650	55.812231518913	122
1	650	55.812231518913	123
1	673	57.127525424898	124
1	673	57.127525424898	125
1	673	57.127525424898	126
1	673	57.127525424898	127
1	696	58.527070325969	128
1	696	58.527070325969	129
1	696	58.527070325969	130
1	696	58.527070325969	131
1	719	60.229044170287	132
1	719	60.229044170287	133
1	719	60.229044170287	134
1	719	60.229044170287	135
1	742	61.844404664659	136
1	742	61.844404664659	137
1	742	61.844404664659	138
1	742	61.844404664659	139
1	765	63.205199055931	140
1	765	63.205199055931	141
1	765	63.205199055931	142
1	765	63.205199055931	143
1	788	65.115531203052	144
1	788	65.115531203052	145
1	788	65.115531203052	146
1	788	65.115531203052	147
1	815	69.615808281076	148
1	815	69.615808281076	149
1	815	69.615808281076	150
1	815	69.615808281076	151
1	833	71.277795132975	152
1	833	71.277795132975	153
1	833	71.277795132975	154
1	833	71.277795132975	155
1	856	72.339217382871	156
1	856	72.339217382871	157
1	856	72.339217382871	158
1	856	72.339217382871	159
1	866	73.524855479916	160
1	866	73.524855479916	161
1	866	73.524855479916	162
1	866	73.524855479916	163
1	889	75.485285433	164
1	889	75.485285433	165
1	889	75.485285433	166
1	889	75.485285433	167
1	912	76.723620372876	168
1	912	76.723620372876	169
1	912	76.723620372876	170
1	912	76.723620372876	171
1	935	78.006957048942	172
1	935	78.006957048942	173
1	935	78.006957048942	174
1	935	78.006957048942	175
1	962	83.219298870352	176
1	962	83.219298870352	177
1	962	83.219298870352	178
1	962	83.219298870352	179
1	985	85.139211996013	180
1	985	85.139211996013	181
1	985	85.139211996013	182
1	985	85.139211996013	183
1	1008	87.042856438712	184
1	1008	87.042856438712	185
1	1008	87.042856438712	186
1	1008	87.042856438712	187
1	1031	88.274416351621	188
1	1031	88.274416351621	189
1	1031	88.274416351621	190
1	1031	88.274416351621	191
1	1054	89.606964786423	192
1	1054	89.606964786423	193
1	1054	89.606964786423	194
1	1054	89.606964786423	195
1	1074	90.625533519466	196
1	1074	90.625533519466	197
1	1074	90.625533519466	198
1	1074	90.625533519466	199
1	1097	92.447078351168	200
1	1097	92.447078351168	201
1	1097	92.447078351168	202
1	1097	92.447078351168	203
1	1120	93.922590868824	204
1	1120	93.922590868824	205
1	1120	93.922590868824	206
1	1120	93.922590868824	207
1	1140	95.046301271712	208
1	1140	95.046301271712	209
1	1140	95.046301271712	210
1	1140	95.046301271712	211
1	1163	96.502825551269	212
1	1163	96.502825551269	213
1	1163	96.502825551269	214
1	1163	96.502825551269	215
1	1183	98.510700916093	216
1	1183	98.510700916093	217
1	1183	98.510700916093	218
1	1183	98.510700916093	219
1	1199	100.09818614984	220
1	1199	100.09818614984	221
1	1199	100.09818614984	222
1	1199	100.09818614984	223
1	1222	101.565376658759	224
1	1222	101.565376658759	225
1	1222	101.565376658759	226
1	1222	101.565376658759	227
1	1245	102.639808392417	228
1	1245	102.639808392417	229
1	1245	102.639808392417	230
1	1245	102.639808392417	231
1	1270	104.96079015047	232
1	1270	104.96079015047	233
1	1270	104.96079015047	234
1	1270	104.96079015047	235
1	1289	106.097751267644	236
1	1289	106.097751267644	237
1	1289	106.097751267644	238
1	1289	106.097751267644	239
1	1314	109.255392509598	240
1	1314	109.255392509598	241
1	1314	109.255392509598	242
1	1314	109.255392509598	243
1	1337	111.128249848528	244
1	1337	111.128249848528	245
1	1337	111.128249848528	246
1	1337	111.128249848528	247
1	1360	112.256632403558	248
1	1360	112.256632403558	249
1	1360	112.256632403558	250
1	1360	112.256632403558	251
1	1383	113.849137371338	252
1	1383	113.849137371338	253
1	1383	113.849137371338	254
1	1383	113.849137371338	255
1	1403	114.964464710378	256
1	1403	114.964464710378	257
1	1403	114.964464710378	258
1	1403	114.964464710378	259
1	1426	116.811433547756	260
1	1426	116.811433547756	261
1	1426	116.811433547756	262
1	1426	116.811433547756	263
1	1451	119.466713554293	264
1	1451	119.466713554293	265
1	1451	119.466713554293	266
1	1451	119.466713554293	267
1	1474	121.371588772869	268
1	1474	121.371588772869	269
1	1474	121.371588772869	270
1	1474	121.371588772869	271
1	1497	122.76421670053	272
1	1497	122.76421670053	273
1	1497	122.76421670053	274
1	1497	122.76421670053	275
1	1520	123.861111413214	276
1	1520	123.861111413214	277
1	1520	123.861111413214	278
1	1520	123.861111413214	279
1	1545	126.565105772331	280
1	1545	126.565105772331	281
1	1545	126.565105772331	282
1	1545	126.565105772331	283
1	1568	127.857238041526	284
1	1568	127.857238041526	285
1	1568	127.857238041526	286
1	1568	127.857238041526	287
1	1591	129.74352812922	288
1	1591	129.74352812922	289
1	1591	129.74352812922	290
1	1591	129.74352812922	291
1	1614	130.961323558467	292
1	1614	130.961323558467	293
1	1614	130.961323558467	294
1	1614	130.961323558467	295
1	1637	132.731597619077	296
1	1637	132.731597619077	297
1	1637	132.731597619077	298
1	1637	132.731597619077	299
1	1660	133.927074857104	300
1	1660	133.927074857104	301
1	1660	133.927074857104	302
1	1660	133.927074857104	303
1	1683	135.159052344815	304
1	1683	135.159052344815	305
1	1683	135.159052344815	306
1	1683	135.159052344815	307
1	1708	138.289253757886	308
1	1708	138.289253757886	309
1	1708	138.289253757886	310
1	1708	138.289253757886	311
1	1731	140.085220743627	312
1	1731	140.085220743627	313
1	1731	140.085220743627	314
1	1731	140.085220743627	315
1	1754	141.782378130018	316
1	1754	141.782378130018	317
1	1754	141.782378130018	318
1	1754	141.782378130018	319
1	1777	143.30882843377	320
1	1777	143.30882843377	321
1	1777	143.30882843377	322
1	1777	143.30882843377	323
1	1800	144.753463776748	324
1	1800	144.753463776748	325
1	1800	144.753463776748	326
1	1800	144.753463776748	327
1	1823	146.273206054446	328
1	1823	146.273206054446	329
1	1823	146.273206054446	330
1	1823	146.273206054446	331
1	1846	147.914510429739	332
1	1846	147.914510429739	333
1	1846	147.914510429739	334
1	1846	147.914510429739	335
1	1869	149.72444786811	336
1	1869	149.72444786811	337
1	1869	149.72444786811	338
1	1869	149.72444786811	339
1	1892	150.998490049051	340
1	1892	150.998490049051	341
1	1892	150.998490049051	342
1	1892	150.998490049051	343
1	1916	155.973530485448	344
1	1916	155.973530485448	345
1	1916	155.973530485448	346
1	1916	155.973530485448	347
1	1939	157.010119755395	348
1	1939	157.010119755395	349
1	1939	157.010119755395	350
1	1939	157.010119755395	351
1	1964	159.718814621076	352
1	1964	159.718814621076	353
1	1964	159.718814621076	354
1	1964	159.718814621076	355
1	1987	161.380079202769	356
1	1987	161.380079202769	357
1	1987	161.380079202769	358
1	1987	161.380079202769	359
1	2010	162.486704172544	360
1	2010	162.486704172544	361
1	2010	162.486704172544	362
1	2010	162.486704172544	363
1	2033	163.748016194607	364
1	2033	163.748016194607	365
1	2033	163.748016194607	366
1	2033	163.748016194607	367
1	2056	164.907512169579	368
1	2056	164.907512169579	369
1	2056	164.907512169579	370
1	2056	164.907512169579	371
1	2081	168.603686300764	372
1	2081	168.603686300764	373
1	2081	168.603686300764	374
1	2081	168.603686300764	375
1	2108	173.426253927964	376
1	2108	173.426253927964	377
1	2108	173.426253927964	378
1	2108	173.426253927964	379
1	2131	174.503421080716	380
1	2131	174.503421080716	381
1	2131	174.503421080716	382
1	2131	174.503421080716	383
1	2140	177.483171278655	384
1	2140	177.483171278655	385
1	2140	177.483171278655	386
1	2140	177.483171278655	387
1	2163	179.206780721071	388
1	2163	179.206780721071	389
1	2163	179.206780721071	390
1	2163	179.206780721071	391
1	2186	180.842742815064	392
1	2186	180.842742815064	393
1	2186	180.842742815064	394
1	2186	180.842742815064	395
1	2209	182.476017184452	396
1	2209	182.476017184452	397
1	2209	182.476017184452	398
1	2209	182.476017184452	399
1	2232	184.12075724158	400
1	2232	184.12075724158	401
1	2232	184.12075724158	402
1	2232	184.12075724158	403
1	2255	185.544209790144	404
1	2255	185.544209790144	405
1	2255	185.544209790144	406
1	2255	185.544209790144	407
1	2278	186.778127498217	408
1	2278	186.778127498217	409
1	2278	186.778127498217	410
1	2278	186.778127498217	411
1	2301	188.208208389312	412
1	2301	188.208208389312	413
1	2301	188.208208389312	414
1	2301	188.208208389312	415
1	2324	189.441654004686	416
1	2324	189.441654004686	417
1	2324	189.441654004686	418
1	2324	189.441654004686	419
1	2347	191.221735958739	420
1	2347	191.221735958739	421
1	2347	191.221735958739	422
1	2347	191.221735958739	423
1	2374	194.90216816203	424
1	2374	194.90216816203	425
1	2374	194.90216816203	426
1	2374	194.90216816203	427
1	2397	196.745449638899	428
1	2397	196.745449638899	429
1	2397	196.745449638899	430
1	2397	196.745449638899	431
1	2419	199.764178751188	432
1	2419	199.764178751188	433
1	2419	199.764178751188	434
1	2419	199.764178751188	435
1	2442	200.946248661371	436
1	2442	200.946248661371	437
1	2442	200.946248661371	438
1	2442	200.946248661371	439
1	2465	201.970842052447	440
1	2465	201.970842052447	441
1	2465	201.970842052447	442
1	2465	201.970842052447	443
1	2490	205.094815910501	444
1	2490	205.094815910501	445
1	2490	205.094815910501	446
1	2490	205.094815910501	447
1	2513	206.916361306495	448
1	2513	206.916361306495	449
1	2513	206.916361306495	450
1	2513	206.916361306495	451
1	2536	208.510924729568	452
1	2536	208.510924729568	453
1	2536	208.510924729568	454
1	2536	208.510924729568	455
1	2561	211.148065223487	456
1	2561	211.148065223487	457
1	2561	211.148065223487	458
1	2561	211.148065223487	459
1	2568	212.194766482956	460
1	2568	212.194766482956	461
1	2568	212.194766482956	462
1	2568	212.194766482956	463
1	2591	213.6702727007	464
1	2591	213.6702727007	465
1	2591	213.6702727007	466
1	2591	213.6702727007	467
1	2614	215.558433880487	468
1	2614	215.558433880487	469
1	2614	215.558433880487	470
1	2614	215.558433880487	471
1	2637	216.852486161081	472
1	2637	216.852486161081	473
1	2637	216.852486161081	474
1	2637	216.852486161081	475
1	2657	218.548316678496	476
1	2657	218.548316678496	477
1	2657	218.548316678496	478
1	2657	218.548316678496	479
1	2680	220.305824994575	480
1	2680	220.305824994575	481
1	2680	220.305824994575	482
1	2680	220.305824994575	483
1	2703	221.695721354668	484
1	2703	221.695721354668	485
1	2703	221.695721354668	486
1	2703	221.695721354668	487
1	2726	222.710682797156	488
1	2726	222.710682797156	489
1	2726	222.710682797156	490
1	2726	222.710682797156	491
1	2749	224.044362524266	492
1	2749	224.044362524266	493
1	2749	224.044362524266	494
1	2749	224.044362524266	495
1	2774	227.130431884145	496
1	2774	227.130431884145	497
1	2774	227.130431884145	498
1	2774	227.130431884145	499
1	2797	228.443651076113	500
1	2797	228.443651076113	501
1	2797	228.443651076113	502
1	2797	228.443651076113	503
1	2820	229.975894048466	504
1	2820	229.975894048466	505
1	2820	229.975894048466	506
1	2820	229.975894048466	507
1	2843	231.049847460217	508
1	2843	231.049847460217	509
1	2843	231.049847460217	510
1	2843	231.049847460217	511
1	2866	232.856733314452	512
1	2866	232.856733314452	513
1	2866	232.856733314452	514
1	2866	232.856733314452	515
1	2886	234.027608903488	516
1	2886	234.027608903488	517
1	2886	234.027608903488	518
1	2886	234.027608903488	519
1	2909	235.381105580268	520
1	2909	235.381105580268	521
1	2909	235.381105580268	522
1	2909	235.381105580268	523
1	2934	238.595356085655	524
1	2934	238.595356085655	525
1	2934	238.595356085655	526
1	2934	238.595356085655	527
2	8	0.218066095948	0
2	8	0.218066095948	1
2	31	2.155431322606	2
2	31	2.155431322606	3
2	59	6.874488088178	4
2	59	6.874488088178	5
2	81	7.938414411143	6
2	81	7.938414411143	7
2	110	9.585508594371	8
2	110	9.585508594371	9
2	128	10.839688093505	10
2	128	10.839688093505	11
2	150	12.734769825567	12
2	150	12.734769825567	13
2	233	19.280756603695	14
2	233	19.280756603695	15
2	248	24.300982469012	16
2	248	24.300982469012	17
2	271	25.770801119902	18
2	271	25.770801119902	19
2	302	27.315069488976	20
2	302	27.315069488976	21
2	317	29.201654022443	22
2	317	29.201654022443	23
2	340	30.432507337997	24
2	340	30.432507337997	25
2	369	34.26182564037	26
2	369	34.26182564037	27
2	399	36.737874689322	28
2	399	36.737874689322	29
2	417	38.344800364685	30
2	417	38.344800364685	31
2	445	39.638994168238	32
2	445	39.638994168238	33
2	478	41.96879689248	34
2	478	41.96879689248	35
2	488	43.318242740377	36
2	488	43.318242740377	37
2	503	45.209000928525	38
2	503	45.209000928525	39
2	521	47.149989426545	40
2	521	47.149989426545	41
2	550	48.221934732334	42
2	550	48.221934732334	43
2	574	49.261673009032	44
2	574	49.261673009032	45
2	591	50.674054038372	46
2	591	50.674054038372	47
2	613	52.648978683602	48
2	613	52.648978683602	49
2	637	54.603818344751	50
2	637	54.603818344751	51
2	656	55.827883566388	52
2	656	55.827883566388	53
2	678	57.138335017872	54
2	678	57.138335017872	55
2	701	58.541782406592	56
2	701	58.541782406592	57
2	725	60.247544078981	58
2	725	60.247544078981	59
2	757	61.880058891865	60
2	757	61.880058891865	61
2	783	63.264639986592	62
2	783	63.264639986592	63
2	799	65.143539969977	64
2	799	65.143539969977	65
2	825	69.650490164619	66
2	825	69.650490164619	67
2	847	71.306354392974	68
2	847	71.306354392974	69
2	861	72.349690123417	70
2	861	72.349690123417	71
2	871	73.548619786748	72
2	871	73.548619786748	73
2	894	75.49891439741	74
2	894	75.49891439741	75
2	926	76.761007141531	76
2	926	76.761007141531	77
2	941	78.020392455073	78
2	941	78.020392455073	79
2	968	83.252089859738	80
2	968	83.252089859738	81
2	990	85.151798634687	82
2	990	85.151798634687	83
2	1015	87.059008930782	84
2	1015	87.059008930782	85
2	1037	88.285708033003	86
2	1037	88.285708033003	87
2	1092	90.731083251912	88
2	1092	90.731083251912	89
2	1111	92.480694279723	90
2	1111	92.480694279723	91
2	1150	95.067312150496	92
2	1150	95.067312150496	93
2	1204	100.112942504302	94
2	1204	100.112942504302	95
2	1228	101.578638456307	96
2	1228	101.578638456307	97
2	1260	102.665478330572	98
2	1260	102.665478330572	99
2	1276	104.972972281856	100
2	1276	104.972972281856	101
2	1295	106.119800237961	102
2	1295	106.119800237961	103
2	1319	109.268916765409	104
2	1319	109.268916765409	105
2	1344	111.143340691005	106
2	1344	111.143340691005	107
2	1370	112.286349176687	108
2	1370	112.286349176687	109
2	1418	115.044093034688	110
2	1418	115.044093034688	111
2	1432	116.834305037721	112
2	1432	116.834305037721	113
2	1457	119.491224659677	114
2	1457	119.491224659677	115
2	1484	121.400103205012	116
2	1484	121.400103205012	117
2	1502	122.776153448635	118
2	1502	122.776153448635	119
2	1525	123.876469769893	120
2	1525	123.876469769893	121
2	1551	126.57743660325	122
2	1551	126.57743660325	123
2	1573	127.867445910083	124
2	1573	127.867445910083	125
2	1597	129.763887823192	126
2	1597	129.763887823192	127
2	1620	130.978663483789	128
2	1620	130.978663483789	129
2	1643	132.749546484867	130
2	1643	132.749546484867	131
2	1665	133.937209126195	132
2	1665	133.937209126195	133
2	1697	135.189886213064	134
2	1697	135.189886213064	135
2	1715	138.312200394773	136
2	1715	138.312200394773	137
2	1741	140.112363790573	138
2	1741	140.112363790573	139
2	1761	141.804341557456	140
2	1761	141.804341557456	141
2	1784	143.333939989046	142
2	1784	143.333939989046	143
2	1806	144.77503875973	144
2	1806	144.77503875973	145
2	1828	146.283312161708	146
2	1828	146.283312161708	147
2	1853	147.931070507421	148
2	1853	147.931070507421	149
2	1874	149.734920200336	150
2	1874	149.734920200336	151
2	1921	155.985407032281	152
2	1921	155.985407032281	153
2	1944	157.021640491655	154
2	1944	157.021640491655	155
2	1974	159.764269183424	156
2	1974	159.764269183424	157
2	1992	161.3917007637	158
2	1992	161.3917007637	159
2	2021	162.513168124016	160
2	2021	162.513168124016	161
2	2038	163.75880096547	162
2	2038	163.75880096547	163
2	2061	164.918897900907	164
2	2061	164.918897900907	165
2	2091	168.634516625563	166
2	2091	168.634516625563	167
2	2114	173.445307034047	168
2	2114	173.445307034047	169
2	2145	177.495221028343	170
2	2145	177.495221028343	171
2	2168	179.21742519518	172
2	2168	179.21742519518	173
2	2204	180.878727498835	174
2	2204	180.878727498835	175
2	2215	182.489479108974	176
2	2215	182.489479108974	177
2	2250	184.160128278192	178
2	2250	184.160128278192	179
2	2262	185.563145723248	180
2	2262	185.563145723248	181
2	2283	186.790372347335	182
2	2283	186.790372347335	183
2	2306	188.222203997941	184
2	2306	188.222203997941	185
2	2329	189.452308130391	186
2	2329	189.452308130391	187
2	2365	191.276071103142	188
2	2365	191.276071103142	189
2	2388	194.938700307741	190
2	2388	194.938700307741	191
2	2424	199.777697123154	192
2	2424	199.777697123154	193
2	2454	200.990260990135	194
2	2454	200.990260990135	195
2	2477	202.020515539201	196
2	2477	202.020515539201	197
2	2495	205.105176403103	198
2	2495	205.105176403103	199
2	2519	206.931606023094	200
2	2519	206.931606023094	201
2	2543	208.530228527506	202
2	2543	208.530228527506	203
2	2574	212.207979557564	204
2	2574	212.207979557564	205
2	2605	213.707821472804	206
2	2605	213.707821472804	207
2	2629	215.607330687124	208
2	2629	215.607330687124	209
2	2662	218.559168772486	210
2	2662	218.559168772486	211
2	2685	220.318885252179	212
2	2685	220.318885252179	213
2	2721	221.752645989459	214
2	2721	221.752645989459	215
2	2736	222.745742448264	216
2	2736	222.745742448264	217
2	2754	224.056018581506	218
2	2754	224.056018581506	219
2	2780	227.142845600181	220
2	2780	227.142845600181	221
2	2803	228.463100984819	222
2	2803	228.463100984819	223
2	2834	230.001748338626	224
2	2834	230.001748338626	225
2	2853	231.080167751097	226
2	2853	231.080167751097	227
2	2892	234.041781599812	228
2	2892	234.041781599812	229
2	2914	235.391623477788	230
2	2914	235.391623477788	231
2	2949	238.639380234339	232
2	2949	238.639380234339	233
3	9	0.227595799025	0
3	9	0.227595799025	1
3	9	0.227595799025	2
3	32	2.164437532503	3
3	32	2.164437532503	4
3	32	2.164437532503	5
3	58	6.872232243582	6
3	58	6.872232243582	7
3	58	6.872232243582	8
3	83	7.9459056259	9
3	83	7.9459056259	10
3	83	7.9459056259	11
3	116	9.623536963869	12
3	116	9.623536963869	13
3	116	9.623536963869	14
3	133	10.845221529211	15
3	133	10.845221529211	16
3	133	10.845221529211	17
3	165	14.594818815054	18
3	165	14.594818815054	19
3	165	14.594818815054	20
3	180	16.147529587113	21
3	180	16.147529587113	22
3	180	16.147529587113	23
3	200	17.936309723517	24
3	200	17.936309723517	25
3	200	17.936309723517	26
3	220	19.243457334508	27
3	220	19.243457334508	28
3	220	19.243457334508	29
3	247	24.300476485304	30
3	247	24.300476485304	31
3	247	24.300476485304	32
3	270	25.767120313477	33
3	270	25.767120313477	34
3	270	25.767120313477	35
3	298	27.301442581214	36
3	298	27.301442581214	37
3	298	27.301442581214	38
3	316	29.199928463409	39
3	316	29.199928463409	40
3	316	29.199928463409	41
3	339	30.42531674788	42
3	339	30.42531674788	43
3	339	30.42531674788	44
3	377	34.276483715441	45
3	377	34.276483715441	46
3	377	34.276483715441	47
3	401	36.743740892014	48
3	401	36.743740892014	49
3	401	36.743740892014	50
3	425	38.37432727376	51
3	425	38.37432727376	52
3	425	38.37432727376	53
3	440	39.616531793892	54
3	440	39.616531793892	55
3	440	39.616531793892	56
3	465	41.914190701637	57
3	465	41.914190701637	58
3	465	41.914190701637	59
3	504	45.214130272278	60
3	504	45.214130272278	61
3	504	45.214130272278	62
3	529	47.182315361469	63
3	529	47.182315361469	64
3	529	47.182315361469	65
3	554	48.230533179081	66
3	554	48.230533179081	67
3	554	48.230533179081	68
3	573	49.26134437515	69
3	573	49.26134437515	70
3	573	49.26134437515	71
3	590	50.672389355227	72
3	590	50.672389355227	73
3	590	50.672389355227	74
3	615	52.656535081584	75
3	615	52.656535081584	76
3	615	52.656535081584	77
3	642	54.611657026605	78
3	642	54.611657026605	79
3	642	54.611657026605	80
3	655	55.827303970023	81
3	655	55.827303970023	82
3	655	55.827303970023	83
3	679	57.143202359518	84
3	679	57.143202359518	85
3	679	57.143202359518	86
3	702	58.547540236899	87
3	702	58.547540236899	88
3	702	58.547540236899	89
3	724	60.245936377462	90
3	724	60.245936377462	91
3	724	60.245936377462	92
3	748	61.866587584006	93
3	748	61.866587584006	94
3	748	61.866587584006	95
3	770	63.226238447905	96
3	770	63.226238447905	97
3	770	63.226238447905	98
3	794	65.134883562627	99
3	794	65.134883562627	100
3	794	65.134883562627	101
3	820	69.634302249679	102
3	820	69.634302249679	103
3	820	69.634302249679	104
3	838	71.290412238068	105
3	838	71.290412238068	106
3	838	71.290412238068	107
3	872	73.553397273456	108
3	872	73.553397273456	109
3	872	73.553397273456	110
3	906	75.565454378726	111
3	906	75.565454378726	112
3	906	75.565454378726	113
3	917	76.734534181045	114
3	917	76.734534181045	115
3	917	76.734534181045	116
3	940	78.019463683052	117
3	940	78.019463683052	118
3	940	78.019463683052	119
3	967	83.247381228707	120
3	967	83.247381228707	121
3	967	83.247381228707	122
3	992	85.157831691692	123
3	992	85.157831691692	124
3	992	85.157831691692	125
3	1013	87.055697242239	126
3	1013	87.055697242239	127
3	1013	87.055697242239	128
3	1038	88.289138422084	129
3	1038	88.289138422084	130
3	1038	88.289138422084	131
3	1060	89.634454819922	132
3	1060	89.634454819922	133
3	1060	89.634454819922	134
3	1079	90.637470522208	135
3	1079	90.637470522208	136
3	1079	90.637470522208	137
3	1102	92.466231544427	138
3	1102	92.466231544427	139
3	1102	92.466231544427	140
3	1131	93.947058448386	141
3	1131	93.947058448386	142
3	1131	93.947058448386	143
3	1151	95.070494755385	144
3	1151	95.070494755385	145
3	1151	95.070494755385	146
3	1173	96.531131230363	147
3	1173	96.531131230363	148
3	1173	96.531131230363	149
3	1188	98.544986345864	150
3	1188	98.544986345864	151
3	1188	98.544986345864	152
3	1205	100.119520750023	153
3	1205	100.119520750023	154
3	1205	100.119520750023	155
3	1227	101.575553156603	156
3	1227	101.575553156603	157
3	1227	101.575553156603	158
3	1251	102.651295002584	159
3	1251	102.651295002584	160
3	1251	102.651295002584	161
3	1275	104.97213102708	162
3	1275	104.97213102708	163
3	1275	104.97213102708	164
3	1294	106.11387980718	165
3	1294	106.11387980718	166
3	1294	106.11387980718	167
3	1328	109.292699920101	168
3	1328	109.292699920101	169
3	1328	109.292699920101	170
3	1343	111.142452344989	171
3	1343	111.142452344989	172
3	1343	111.142452344989	173
3	1372	112.293613487081	174
3	1372	112.293613487081	175
3	1372	112.293613487081	176
3	1388	113.861154666874	177
3	1388	113.861154666874	178
3	1388	113.861154666874	179
3	1408	114.990159941676	180
3	1408	114.990159941676	181
3	1408	114.990159941676	182
3	1431	116.82945623609	183
3	1431	116.82945623609	184
3	1431	116.82945623609	185
3	1468	119.533476693331	186
3	1468	119.533476693331	187
3	1468	119.533476693331	188
3	1487	121.441844482622	189
3	1487	121.441844482622	190
3	1487	121.441844482622	191
3	1503	122.778883075658	192
3	1503	122.778883075658	193
3	1503	122.778883075658	194
3	1533	123.927273635832	195
3	1533	123.927273635832	196
3	1533	123.927273635832	197
3	1550	126.575668384179	198
3	1550	126.575668384179	199
3	1550	126.575668384179	200
3	1581	127.882256940365	201
3	1581	127.882256940365	202
3	1581	127.882256940365	203
3	1596	129.756635049858	204
3	1596	129.756635049858	205
3	1596	129.756635049858	206
3	1619	130.974916509357	207
3	1619	130.974916509357	208
3	1619	130.974916509357	209
3	1648	132.756152904812	210
3	1648	132.756152904812	211
3	1648	132.756152904812	212
3	1673	133.965375304231	213
3	1673	133.965375304231	214
3	1673	133.965375304231	215
3	1688	135.175665676178	216
3	1688	135.175665676178	217
3	1688	135.175665676178	218
3	1713	138.302719762469	219
3	1713	138.302719762469	220
3	1713	138.302719762469	221
3	1742	140.114321809288	222
3	1742	140.114321809288	223
3	1742	140.114321809288	224
3	1759	141.798029415038	225
3	1759	141.798029415038	226
3	1759	141.798029415038	227
3	1782	143.326395733767	228
3	1782	143.326395733767	229
3	1782	143.326395733767	230
3	1805	144.76807999974	231
3	1805	144.76807999974	232
3	1805	144.76807999974	233
3	1831	146.297105309049	234
3	1831	146.297105309049	235
3	1831	146.297105309049	236
3	1851	147.927572805556	237
3	1851	147.927572805556	238
3	1851	147.927572805556	239
3	1875	149.737294323969	240
3	1875	149.737294323969	241
3	1875	149.737294323969	242
3	1898	151.023453198034	243
3	1898	151.023453198034	244
3	1898	151.023453198034	245
3	1922	155.988642830848	246
3	1922	155.988642830848	247
3	1922	155.988642830848	248
3	1947	157.034296139883	249
3	1947	157.034296139883	250
3	1947	157.034296139883	251
3	1969	159.734988251945	252
3	1969	159.734988251945	253
3	1969	159.734988251945	254
3	1995	161.40400587297	255
3	1995	161.40400587297	256
3	1995	161.40400587297	257
3	2016	162.504467321319	258
3	2016	162.504467321319	259
3	2016	162.504467321319	260
3	2042	163.769371182867	261
3	2042	163.769371182867	262
3	2042	163.769371182867	263
3	2073	164.99658661897	264
3	2073	164.99658661897	265
3	2073	164.99658661897	266
3	2086	168.623050256561	267
3	2086	168.623050256561	268
3	2086	168.623050256561	269
3	2119	173.455276124317	270
3	2119	173.455276124317	271
3	2119	173.455276124317	272
3	2157	177.535400949628	273
3	2157	177.535400949628	274
3	2157	177.535400949628	275
3	2171	179.228723426633	276
3	2171	179.228723426633	277
3	2171	179.228723426633	278
3	2192	180.858465212909	279
3	2192	180.858465212909	280
3	2192	180.858465212909	281
3	2214	182.489360502489	282
3	2214	182.489360502489	283
3	2214	182.489360502489	284
3	2238	184.141684335896	285
3	2238	184.141684335896	286
3	2238	184.141684335896	287
3	2261	185.561916609875	288
3	2261	185.561916609875	289
3	2261	185.561916609875	290
3	2291	186.809405978283	291
3	2291	186.809405978283	292
3	2291	186.809405978283	293
3	2314	188.241525069612	294
3	2314	188.241525069612	295
3	2314	188.241525069612	296
3	2333	189.46461225264	297
3	2333	189.46461225264	298
3	2333	189.46461225264	299
3	2353	191.244389664312	300
3	2353	191.244389664312	301
3	2353	191.244389664312	302
3	2380	194.925852964954	303
3	2380	194.925852964954	304
3	2380	194.925852964954	305
3	2407	196.768444917573	306
3	2407	196.768444917573	307
3	2407	196.768444917573	308
3	2425	199.783041107089	309
3	2425	199.783041107089	310
3	2425	199.783041107089	311
3	2452	200.980363734922	312
3	2452	200.980363734922	313
3	2452	200.980363734922	314
3	2476	202.019783476452	315
3	2476	202.019783476452	316
3	2476	202.019783476452	317
3	2496	205.11125455822	318
3	2496	205.11125455822	319
3	2496	205.11125455822	320
3	2526	206.95263303069	321
3	2526	206.95263303069	322
3	2526	206.95263303069	323
3	2542	208.529186088998	324
3	2542	208.529186088998	325
3	2542	208.529186088998	326
3	2573	212.205210733956	327
3	2573	212.205210733956	328
3	2573	212.205210733956	329
3	2596	213.691833470993	330
3	2596	213.691833470993	331
3	2596	213.691833470993	332
3	2619	215.575251633097	333
3	2619	215.575251633097	334
3	2619	215.575251633097	335
3	2642	216.871723558688	336
3	2642	216.871723558688	337
3	2642	216.871723558688	338
3	2670	218.578748925696	339
3	2670	218.578748925696	340
3	2670	218.578748925696	341
3	2686	220.32314590057	342
3	2686	220.32314590057	343
3	2686	220.32314590057	344
3	2708	221.706485628757	345
3	2708	221.706485628757	346
3	2708	221.706485628757	347
3	2737	222.746809137027	348
3	2737	222.746809137027	349
3	2737	222.746809137027	350
3	2766	224.120353206318	351
3	2766	224.120353206318	352
3	2766	224.120353206318	353
3	2791	227.174279522342	354
3	2791	227.174279522342	355
3	2791	227.174279522342	356
3	2810	228.488924509969	357
3	2810	228.488924509969	358
3	2810	228.488924509969	359
3	2826	229.991378715583	360
3	2826	229.991378715583	361
3	2826	229.991378715583	362
3	2848	231.063840177845	363
3	2848	231.063840177845	364
3	2848	231.063840177845	365
3	2876	232.881987406144	366
3	2876	232.881987406144	367
3	2876	232.881987406144	368
3	2899	234.052914332727	369
3	2899	234.052914332727	370
3	2899	234.052914332727	371
3	2916	235.397082941242	372
3	2916	235.397082941242	373
3	2916	235.397082941242	374
3	2939	238.611179174852	375
3	2939	238.611179174852	376
3	2939	238.611179174852	377
4	12	0.228177698444	0
4	12	0.228177698444	1
4	12	0.228177698444	2
4	12	0.228177698444	3
4	35	2.168530242006	4
4	35	2.168530242006	5
4	35	2.168530242006	6
4	35	2.168530242006	7
4	60	6.880201571506	8
4	60	6.880201571506	9
4	60	6.880201571506	10
4	60	6.880201571506	11
4	82	7.940596776278	12
4	82	7.940596776278	13
4	82	7.940596776278	14
4	82	7.940596776278	15
4	104	9.573361098308	16
4	104	9.573361098308	17
4	104	9.573361098308	18
4	104	9.573361098308	19
4	127	10.831189265006	20
4	127	10.831189265006	21
4	127	10.831189265006	22
4	127	10.831189265006	23
4	160	14.577589888939	24
4	160	14.577589888939	25
4	160	14.577589888939	26
4	160	14.577589888939	27
4	184	16.162670397387	28
4	184	16.162670397387	29
4	184	16.162670397387	30
4	184	16.162670397387	31
4	201	17.939026809437	32
4	201	17.939026809437	33
4	201	17.939026809437	34
4	201	17.939026809437	35
4	225	19.256676953126	36
4	225	19.256676953126	37
4	225	19.256676953126	38
4	225	19.256676953126	39
4	249	24.302713212923	40
4	249	24.302713212923	41
4	249	24.302713212923	42
4	249	24.302713212923	43
4	275	25.778166452097	44
4	275	25.778166452097	45
4	275	25.778166452097	46
4	275	25.778166452097	47
4	293	27.290677524106	48
4	293	27.290677524106	49
4	293	27.290677524106	50
4	293	27.290677524106	51
4	318	29.207429039182	52
4	318	29.207429039182	53
4	318	29.207429039182	54
4	318	29.207429039182	55
4	345	30.441941068126	56
4	345	30.441941068126	57
4	345	30.441941068126	58
4	345	30.441941068126	59
4	370	34.265914277969	60
4	370	34.265914277969	61
4	370	34.265914277969	62
4	370	34.265914277969	63
4	394	36.726070039132	64
4	394	36.726070039132	65
4	394	36.726070039132	66
4	394	36.726070039132	67
4	420	38.356421749911	68
4	420	38.356421749911	69
4	420	38.356421749911	70
4	420	38.356421749911	71
4	449	39.647823620315	72
4	449	39.647823620315	73
4	449	39.647823620315	74
4	449	39.647823620315	75
4	473	41.958358433852	76
4	473	41.958358433852	77
4	473	41.958358433852	78
4	473	41.958358433852	79
4	498	45.198824036491	80
4	498	45.198824036491	81
4	498	45.198824036491	82
4	498	45.198824036491	83
4	524	47.166421054521	84
4	524	47.166421054521	85
4	524	47.166421054521	86
4	524	47.166421054521	87
4	544	48.199213056654	88
4	544	48.199213056654	89
4	544	48.199213056654	90
4	544	48.199213056654	91
4	567	49.245271302786	92
4	567	49.245271302786	93
4	567	49.245271302786	94
4	567	49.245271302786	95
4	597	50.686883244885	96
4	597	50.686883244885	97
4	597	50.686883244885	98
4	597	50.686883244885	99
4	614	52.653332383713	100
4	614	52.653332383713	101
4	614	52.653332383713	102
4	614	52.653332383713	103
4	636	54.601254978751	104
4	636	54.601254978751	105
4	636	54.601254978751	106
4	636	54.601254978751	107
4	657	55.828858762791	108
4	657	55.828858762791	109
4	657	55.828858762791	110
4	657	55.828858762791	111
4	685	57.157009083033	112
4	685	57.157009083033	113
4	685	57.157009083033	114
4	685	57.157009083033	115
4	705	58.553160204866	116
4	705	58.553160204866	117
4	705	58.553160204866	118
4	705	58.553160204866	119
4	731	60.258229202202	120
4	731	60.258229202202	121
4	731	60.258229202202	122
4	731	60.258229202202	123
4	747	61.859414883147	124
4	747	61.859414883147	125
4	747	61.859414883147	126
4	747	61.859414883147	127
4	778	63.254073468201	128
4	778	63.254073468201	129
4	778	63.254073468201	130
4	778	63.254073468201	131
4	793	65.128615425973	132
4	793	65.128615425973	133
4	793	65.128615425973	134
4	793	65.128615425973	135
4	839	71.293583932825	136
4	839	71.293583932825	137
4	839	71.293583932825	138
4	839	71.293583932825	139
4	879	73.584205893206	140
4	879	73.584205893206	141
4	879	73.584205893206	142
4	879	73.584205893206	143
4	897	75.519614938729	144
4	897	75.519614938729	145
4	897	75.519614938729	146
4	897	75.519614938729	147
4	921	76.746214360123	148
4	921	76.746214360123	149
4	921	76.746214360123	150
4	921	76.746214360123	151
4	942	78.023779825267	152
4	942	78.023779825267	153
4	942	78.023779825267	154
4	942	78.023779825267	155
4	975	83.262356672102	156
4	975	83.262356672102	157
4	975	83.262356672102	158
4	975	83.262356672102	159
4	991	85.153647062726	160
4	991	85.153647062726	161
4	991	85.153647062726	162
4	991	85.153647062726	163
4	1014	87.055965204295	164
4	1014	87.055965204295	165
4	1014	87.055965204295	166
4	1014	87.055965204295	167
4	1036	88.285064423187	168
4	1036	88.285064423187	169
4	1036	88.285064423187	170
4	1036	88.285064423187	171
4	1059	89.63002841681	172
4	1059	89.63002841681	173
4	1059	89.63002841681	174
4	1059	89.63002841681	175
4	1083	90.647479593072	176
4	1083	90.647479593072	177
4	1083	90.647479593072	178
4	1083	90.647479593072	179
4	1103	92.469890771185	180
4	1103	92.469890771185	181
4	1103	92.469890771185	182
4	1103	92.469890771185	183
4	1125	93.933072960888	184
4	1125	93.933072960888	185
4	1125	93.933072960888	186
4	1125	93.933072960888	187
4	1145	95.056952067046	188
4	1145	95.056952067046	189
4	1145	95.056952067046	190
4	1145	95.056952067046	191
4	1168	96.513493600059	192
4	1168	96.513493600059	193
4	1168	96.513493600059	194
4	1168	96.513493600059	195
4	1192	98.573500975832	196
4	1192	98.573500975832	197
4	1192	98.573500975832	198
4	1192	98.573500975832	199
4	1206	100.119800505513	200
4	1206	100.119800505513	201
4	1206	100.119800505513	202
4	1206	100.119800505513	203
4	1229	101.583977293968	204
4	1229	101.583977293968	205
4	1229	101.583977293968	206
4	1229	101.583977293968	207
4	1250	102.650132502405	208
4	1250	102.650132502405	209
4	1250	102.650132502405	210
4	1250	102.650132502405	211
4	1282	104.983138694402	212
4	1282	104.983138694402	213
4	1282	104.983138694402	214
4	1282	104.983138694402	215
4	1302	106.130101200913	216
4	1302	106.130101200913	217
4	1302	106.130101200913	218
4	1302	106.130101200913	219
4	1322	109.279261953587	220
4	1322	109.279261953587	221
4	1322	109.279261953587	222
4	1322	109.279261953587	223
4	1342	111.140260544772	224
4	1342	111.140260544772	225
4	1342	111.140260544772	226
4	1342	111.140260544772	227
4	1365	112.275966784484	228
4	1365	112.275966784484	229
4	1365	112.275966784484	230
4	1365	112.275966784484	231
4	1392	113.872206799849	232
4	1392	113.872206799849	233
4	1392	113.872206799849	234
4	1392	113.872206799849	235
4	1412	115.02580382262	236
4	1412	115.02580382262	237
4	1412	115.02580382262	238
4	1412	115.02580382262	239
4	1433	116.837041403305	240
4	1433	116.837041403305	241
4	1433	116.837041403305	242
4	1433	116.837041403305	243
4	1456	119.484420645254	244
4	1456	119.484420645254	245
4	1456	119.484420645254	246
4	1456	119.484420645254	247
4	1479	121.386939689062	248
4	1479	121.386939689062	249
4	1479	121.386939689062	250
4	1479	121.386939689062	251
4	1504	122.779204281833	252
4	1504	122.779204281833	253
4	1504	122.779204281833	254
4	1504	122.779204281833	255
4	1528	123.887756080013	256
4	1528	123.887756080013	257
4	1528	123.887756080013	258
4	1528	123.887756080013	259
4	1552	126.582180073275	260
4	1552	126.582180073275	261
4	1552	126.582180073275	262
4	1552	126.582180073275	263
4	1574	127.871227098181	264
4	1574	127.871227098181	265
4	1574	127.871227098181	266
4	1574	127.871227098181	267
4	1607	129.780201256813	268
4	1607	129.780201256813	269
4	1607	129.780201256813	270
4	1607	129.780201256813	271
4	1627	130.990126055125	272
4	1627	130.990126055125	273
4	1627	130.990126055125	274
4	1627	130.990126055125	275
4	1642	132.743074842004	276
4	1642	132.743074842004	277
4	1642	132.743074842004	278
4	1642	132.743074842004	279
4	1666	133.93772773105	280
4	1666	133.93772773105	281
4	1666	133.93772773105	282
4	1666	133.93772773105	283
4	1689	135.178945912009	284
4	1689	135.178945912009	285
4	1689	135.178945912009	286
4	1689	135.178945912009	287
4	1714	138.309044446371	288
4	1714	138.309044446371	289
4	1714	138.309044446371	290
4	1714	138.309044446371	291
4	1736	140.09553250923	292
4	1736	140.09553250923	293
4	1736	140.09553250923	294
4	1736	140.09553250923	295
4	1760	141.803156894504	296
4	1760	141.803156894504	297
4	1760	141.803156894504	298
4	1760	141.803156894504	299
4	1783	143.331326778656	300
4	1783	143.331326778656	301
4	1783	143.331326778656	302
4	1783	143.331326778656	303
4	1813	144.795455096111	304
4	1813	144.795455096111	305
4	1813	144.795455096111	306
4	1813	144.795455096111	307
4	1835	146.308222127539	308
4	1835	146.308222127539	309
4	1835	146.308222127539	310
4	1835	146.308222127539	311
4	1852	147.930263170855	312
4	1852	147.930263170855	313
4	1852	147.930263170855	314
4	1852	147.930263170855	315
4	1882	149.754728554309	316
4	1882	149.754728554309	317
4	1882	149.754728554309	318
4	1882	149.754728554309	319
4	1897	151.017927501098	320
4	1897	151.017927501098	321
4	1897	151.017927501098	322
4	1897	151.017927501098	323
4	1928	156.010105170844	324
4	1928	156.010105170844	325
4	1928	156.010105170844	326
4	1928	156.010105170844	327
4	1951	157.04491341037	328
4	1951	157.04491341037	329
4	1951	157.04491341037	330
4	1951	157.04491341037	331
4	1973	159.754548964619	332
4	1973	159.754548964619	333
4	1973	159.754548964619	334
4	1973	159.754548964619	335
4	1996	161.404123320853	336
4	1996	161.404123320853	337
4	1996	161.404123320853	338
4	1996	161.404123320853	339
4	2015	162.496937078871	340
4	2015	162.496937078871	341
4	2015	162.496937078871	342
4	2015	162.496937078871	343
4	2039	163.759884943366	344
4	2039	163.759884943366	345
4	2039	163.759884943366	346
4	2039	163.759884943366	347
4	2064	164.943229570069	348
4	2064	164.943229570069	349
4	2064	164.943229570069	350
4	2064	164.943229570069	351
4	2087	168.626825028359	352
4	2087	168.626825028359	353
4	2087	168.626825028359	354
4	2087	168.626825028359	355
4	2113	173.44365696955	356
4	2113	173.44365696955	357
4	2113	173.44365696955	358
4	2113	173.44365696955	359
4	2146	177.495921739489	360
4	2146	177.495921739489	361
4	2146	177.495921739489	362
4	2146	177.495921739489	363
4	2175	179.238948083388	364
4	2175	179.238948083388	365
4	2175	179.238948083388	366
4	2175	179.238948083388	367
4	2191	180.857534155401	368
4	2191	180.857534155401	369
4	2191	180.857534155401	370
4	2191	180.857534155401	371
4	2216	182.495882420485	372
4	2216	182.495882420485	373
4	2216	182.495882420485	374
4	2216	182.495882420485	375
4	2237	184.138671177726	376
4	2237	184.138671177726	377
4	2237	184.138671177726	378
4	2237	184.138671177726	379
4	2260	185.560320313445	380
4	2260	185.560320313445	381
4	2260	185.560320313445	382
4	2260	185.560320313445	383
4	2284	186.796082553715	384
4	2284	186.796082553715	385
4	2284	186.796082553715	386
4	2284	186.796082553715	387
4	2307	188.227472292863	388
4	2307	188.227472292863	389
4	2307	188.227472292863	390
4	2307	188.227472292863	391
4	2332	189.463762019451	392
4	2332	189.463762019451	393
4	2332	189.463762019451	394
4	2332	189.463762019451	395
4	2352	191.235916455087	396
4	2352	191.235916455087	397
4	2352	191.235916455087	398
4	2352	191.235916455087	399
4	2379	194.918786425584	400
4	2379	194.918786425584	401
4	2379	194.918786425584	402
4	2379	194.918786425584	403
4	2402	196.758075818256	404
4	2402	196.758075818256	405
4	2402	196.758075818256	406
4	2402	196.758075818256	407
4	2428	199.788354311085	408
4	2428	199.788354311085	409
4	2428	199.788354311085	410
4	2428	199.788354311085	411
4	2447	200.966566319713	412
4	2447	200.966566319713	413
4	2447	200.966566319713	414
4	2447	200.966566319713	415
4	2470	202.000432070712	416
4	2470	202.000432070712	417
4	2470	202.000432070712	418
4	2470	202.000432070712	419
4	2499	205.115490854993	420
4	2499	205.115490854993	421
4	2499	205.115490854993	422
4	2499	205.115490854993	423
4	2518	206.927604490475	424
4	2518	206.927604490475	425
4	2518	206.927604490475	426
4	2518	206.927604490475	427
4	2541	208.525238460633	428
4	2541	208.525238460633	429
4	2541	208.525238460633	430
4	2541	208.525238460633	431
4	2575	212.209684213085	432
4	2575	212.209684213085	433
4	2575	212.209684213085	434
4	2575	212.209684213085	435
4	2597	213.693371688332	436
4	2597	213.693371688332	437
4	2597	213.693371688332	438
4	2597	213.693371688332	439
4	2623	215.585659920071	440
4	2623	215.585659920071	441
4	2623	215.585659920071	442
4	2623	215.585659920071	443
4	2643	216.879109209549	444
4	2643	216.879109209549	445
4	2643	216.879109209549	446
4	2643	216.879109209549	447
4	2663	218.565885557947	448
4	2663	218.565885557947	449
4	2663	218.565885557947	450
4	2663	218.565885557947	451
4	2692	220.33505113663	452
4	2692	220.33505113663	453
4	2692	220.33505113663	454
4	2692	220.33505113663	455
4	2713	221.735536816802	456
4	2713	221.735536816802	457
4	2713	221.735536816802	458
4	2713	221.735536816802	459
4	2731	222.721010477417	460
4	2731	222.721010477417	461
4	2731	222.721010477417	462
4	2731	222.721010477417	463
4	2757	224.066477481735	464
4	2757	224.066477481735	465
4	2757	224.066477481735	466
4	2757	224.066477481735	467
4	2779	227.142055648247	468
4	2779	227.142055648247	469
4	2779	227.142055648247	470
4	2779	227.142055648247	471
4	2802	228.460118768549	472
4	2802	228.460118768549	473
4	2802	228.460118768549	474
4	2802	228.460118768549	475
4	2825	229.989990508803	476
4	2825	229.989990508803	477
4	2825	229.989990508803	478
4	2825	229.989990508803	479
4	2854	231.082601553445	480
4	2854	231.082601553445	481
4	2854	231.082601553445	482
4	2854	231.082601553445	483
4	2871	232.867375922239	484
4	2871	232.867375922239	485
4	2871	232.867375922239	486
4	2871	232.867375922239	487
4	2891	234.041378959816	488
4	2891	234.041378959816	489
4	2891	234.041378959816	490
4	2891	234.041378959816	491
4	2915	235.392672520705	492
4	2915	235.392672520705	493
4	2915	235.392672520705	494
4	2915	235.392672520705	495
4	2943	238.621954395706	496
4	2943	238.621954395706	497
4	2943	238.621954395706	498
4	2943	238.621954395706	499
5	20	0.240512463835	0
5	20	0.240512463835	1
5	20	0.240512463835	2
5	43	2.191100901636	3
5	43	2.191100901636	4
5	43	2.191100901636	5
5	66	6.889607333838	6
5	66	6.889607333838	7
5	66	6.889607333838	8
5	90	7.954930388056	9
5	90	7.954930388056	10
5	90	7.954930388056	11
5	109	9.58414835313	12
5	109	9.58414835313	13
5	109	9.58414835313	14
5	136	10.852261049973	15
5	136	10.852261049973	16
5	136	10.852261049973	17
5	166	14.599110754278	18
5	166	14.599110754278	19
5	166	14.599110754278	20
5	189	16.18375867677	21
5	189	16.18375867677	22
5	189	16.18375867677	23
5	205	17.947060011769	24
5	205	17.947060011769	25
5	205	17.947060011769	26
5	224	19.255029281409	27
5	224	19.255029281409	28
5	224	19.255029281409	29
5	259	24.323427600594	30
5	259	24.323427600594	31
5	259	24.323427600594	32
5	278	25.787108677419	33
5	278	25.787108677419	34
5	278	25.787108677419	35
5	305	27.347559582872	36
5	305	27.347559582872	37
5	305	27.347559582872	38
5	328	29.228283449652	39
5	328	29.228283449652	40
5	328	29.228283449652	41
5	344	30.440512276572	42
5	344	30.440512276572	43
5	344	30.440512276572	44
5	378	34.279514904022	45
5	378	34.279514904022	46
5	378	34.279514904022	47
5	400	36.738693379041	48
5	400	36.738693379041	49
5	400	36.738693379041	50
5	429	38.386366338659	51
5	429	38.386366338659	52
5	429	38.386366338659	53
5	444	39.636763899613	54
5	444	39.636763899613	55
5	444	39.636763899613	56
5	469	41.925525930635	57
5	469	41.925525930635	58
5	469	41.925525930635	59
5	510	45.230779528758	60
5	510	45.230779528758	61
5	510	45.230779528758	62
5	530	47.185189828708	63
5	530	47.185189828708	64
5	530	47.185189828708	65
5	549	48.212290757893	66
5	549	48.212290757893	67
5	549	48.212290757893	68
5	572	49.25773242695	69
5	572	49.25773242695	70
5	572	49.25773242695	71
5	598	50.688111663387	72
5	598	50.688111663387	73
5	598	50.688111663387	74
5	625	52.670626514933	75
5	625	52.670626514933	76
5	625	52.670626514933	77
5	667	55.850928556617	78
5	667	55.850928556617	79
5	667	55.850928556617	80
5	690	57.169815246369	81
5	690	57.169815246369	82
5	690	57.169815246369	83
5	709	58.560986906699	84
5	709	58.560986906699	85
5	709	58.560986906699	86
5	736	60.271854422314	87
5	736	60.271854422314	88
5	736	60.271854422314	89
5	753	61.874733109743	90
5	753	61.874733109743	91
5	753	61.874733109743	92
5	774	63.238682363673	93
5	774	63.238682363673	94
5	774	63.238682363673	95
5	805	65.154082309586	96
5	805	65.154082309586	97
5	805	65.154082309586	98
5	824	69.646728829806	99
5	824	69.646728829806	100
5	824	69.646728829806	101
5	850	71.324750540214	102
5	850	71.324750540214	103
5	850	71.324750540214	104
5	878	73.574415477012	105
5	878	73.574415477012	106
5	878	73.574415477012	107
5	902	75.53012094939	108
5	902	75.53012094939	109
5	902	75.53012094939	110
5	929	76.774372513678	111
5	929	76.774372513678	112
5	929	76.774372513678	113
5	952	78.051801346048	114
5	952	78.051801346048	115
5	952	78.051801346048	116
5	972	83.258592512685	117
5	972	83.258592512685	118
5	972	83.258592512685	119
5	1002	85.177967746811	120
5	1002	85.177967746811	121
5	1002	85.177967746811	122
5	1025	87.082536795547	123
5	1025	87.082536795547	124
5	1025	87.082536795547	125
5	1048	88.306300054515	126
5	1048	88.306300054515	127
5	1048	88.306300054515	128
5	1068	89.658028504083	129
5	1068	89.658028504083	130
5	1068	89.658028504083	131
5	1088	90.665588326589	132
5	1088	90.665588326589	133
5	1088	90.665588326589	134
5	1112	92.480828123895	135
5	1112	92.480828123895	136
5	1112	92.480828123895	137
5	1130	93.943830779486	138
5	1130	93.943830779486	139
5	1130	93.943830779486	140
5	1157	95.09337527303	141
5	1157	95.09337527303	142
5	1157	95.09337527303	143
5	1177	96.561658990757	144
5	1177	96.561658990757	145
5	1177	96.561658990757	146
5	1216	100.130376461998	147
5	1216	100.130376461998	148
5	1216	100.130376461998	149
5	1233	101.586214528582	150
5	1233	101.586214528582	151
5	1233	101.586214528582	152
5	1259	102.663760384681	153
5	1259	102.663760384681	154
5	1259	102.663760384681	155
5	1299	106.128501486284	156
5	1299	106.128501486284	157
5	1299	106.128501486284	158
5	1327	109.291187927164	159
5	1327	109.291187927164	160
5	1327	109.291187927164	161
5	1354	111.170445384574	162
5	1354	111.170445384574	163
5	1354	111.170445384574	164
5	1371	112.289186951387	165
5	1371	112.289186951387	166
5	1371	112.289186951387	167
5	1397	113.884165311256	168
5	1397	113.884165311256	169
5	1397	113.884165311256	170
5	1417	115.042942457479	171
5	1417	115.042942457479	172
5	1417	115.042942457479	173
5	1437	116.84041289544	174
5	1437	116.84041289544	175
5	1437	116.84041289544	176
5	1464	119.520152478296	177
5	1464	119.520152478296	178
5	1464	119.520152478296	179
5	1491	121.452235363809	180
5	1491	121.452235363809	181
5	1491	121.452235363809	182
5	1514	122.799878331398	183
5	1514	122.799878331398	184
5	1514	122.799878331398	185
5	1534	123.935161251757	186
5	1534	123.935161251757	187
5	1534	123.935161251757	188
5	1562	126.592834829027	189
5	1562	126.592834829027	190
5	1562	126.592834829027	191
5	1585	127.895844614559	192
5	1585	127.895844614559	193
5	1585	127.895844614559	194
5	1601	129.767028678105	195
5	1601	129.767028678105	196
5	1601	129.767028678105	197
5	1624	130.987215400387	198
5	1624	130.987215400387	199
5	1624	130.987215400387	200
5	1654	132.779942567886	201
5	1654	132.779942567886	202
5	1654	132.779942567886	203
5	1674	133.966397304157	204
5	1674	133.966397304157	205
5	1674	133.966397304157	206
5	1700	135.214677062453	207
5	1700	135.214677062453	208
5	1700	135.214677062453	209
5	1719	138.315171861333	210
5	1719	138.315171861333	211
5	1719	138.315171861333	212
5	1743	140.118046597575	213
5	1743	140.118046597575	214
5	1743	140.118046597575	215
5	1771	141.823436225142	216
5	1771	141.823436225142	217
5	1771	141.823436225142	218
5	1788	143.339815680721	219
5	1788	143.339815680721	220
5	1788	143.339815680721	221
5	1812	144.788051877085	222
5	1812	144.788051877085	223
5	1812	144.788051877085	224
5	1840	146.326785464202	225
5	1840	146.326785464202	226
5	1840	146.326785464202	227
5	1861	147.940846483334	228
5	1861	147.940846483334	229
5	1861	147.940846483334	230
5	1881	149.753096161998	231
5	1881	149.753096161998	232
5	1881	149.753096161998	233
5	1906	151.056969708246	234
5	1906	151.056969708246	235
5	1906	151.056969708246	236
5	1929	156.012246108142	237
5	1929	156.012246108142	238
5	1929	156.012246108142	239
5	1956	157.062403033572	240
5	1956	157.062403033572	241
5	1956	157.062403033572	242
5	1979	159.768206960439	243
5	1979	159.768206960439	244
5	1979	159.768206960439	245
5	2004	161.425480543023	246
5	2004	161.425480543023	247
5	2004	161.425480543023	248
5	2022	162.513590054478	249
5	2022	162.513590054478	250
5	2022	162.513590054478	251
5	2050	163.789067742516	252
5	2050	163.789067742516	253
5	2050	163.789067742516	254
5	2069	164.959845341481	255
5	2069	164.959845341481	256
5	2069	164.959845341481	257
5	2098	168.645947821011	258
5	2098	168.645947821011	259
5	2098	168.645947821011	260
5	2122	173.457045493747	261
5	2122	173.457045493747	262
5	2122	173.457045493747	263
5	2153	177.516264854201	264
5	2153	177.516264854201	265
5	2153	177.516264854201	266
5	2176	179.246820620898	267
5	2176	179.246820620898	268
5	2176	179.246820620898	269
5	2197	180.868413938945	270
5	2197	180.868413938945	271
5	2197	180.868413938945	272
5	2226	182.528214321329	273
5	2226	182.528214321329	274
5	2226	182.528214321329	275
5	2243	184.148871613279	276
5	2243	184.148871613279	277
5	2243	184.148871613279	278
5	2272	185.601473924952	279
5	2272	185.601473924952	280
5	2272	185.601473924952	281
5	2295	186.825463814019	282
5	2295	186.825463814019	283
5	2295	186.825463814019	284
5	2315	188.24264835877	285
5	2315	188.24264835877	286
5	2315	188.24264835877	287
5	2341	189.482621693943	288
5	2341	189.482621693943	289
5	2341	189.482621693943	290
5	2358	191.248557156368	291
5	2358	191.248557156368	292
5	2358	191.248557156368	293
5	2389	194.94005023101	294
5	2389	194.94005023101	295
5	2389	194.94005023101	296
5	2411	196.806842603571	297
5	2411	196.806842603571	298
5	2411	196.806842603571	299
5	2432	199.795839876818	300
5	2432	199.795839876818	301
5	2432	199.795839876818	302
5	2453	200.983716960507	303
5	2453	200.983716960507	304
5	2453	200.983716960507	305
5	2475	202.01434021797	306
5	2475	202.01434021797	307
5	2475	202.01434021797	308
5	2507	205.134075150438	309
5	2507	205.134075150438	310
5	2507	205.134075150438	311
5	2527	206.956426827976	312
5	2527	206.956426827976	313
5	2527	206.956426827976	314
5	2553	208.540722819416	315
5	2553	208.540722819416	316
5	2553	208.540722819416	317
5	2579	212.217773120436	318
5	2579	212.217773120436	319
5	2579	212.217773120436	320
5	2606	213.713292438756	321
5	2606	213.713292438756	322
5	2606	213.713292438756	323
5	2628	215.598063125671	324
5	2628	215.598063125671	325
5	2628	215.598063125671	326
5	2647	216.88470432483	327
5	2647	216.88470432483	328
5	2647	216.88470432483	329
5	2674	218.601496139552	330
5	2674	218.601496139552	331
5	2674	218.601496139552	332
5	2693	220.33951414678	333
5	2693	220.33951414678	334
5	2693	220.33951414678	335
5	2712	221.730513794441	336
5	2712	221.730513794441	337
5	2712	221.730513794441	338
5	2738	222.7524057501	339
5	2738	222.7524057501	340
5	2738	222.7524057501	341
5	2762	224.084190182088	342
5	2762	224.084190182088	343
5	2762	224.084190182088	344
5	2787	227.161690986571	345
5	2787	227.161690986571	346
5	2787	227.161690986571	347
5	2814	228.511822317334	348
5	2814	228.511822317334	349
5	2814	228.511822317334	350
5	2837	230.014408906225	351
5	2837	230.014408906225	352
5	2837	230.014408906225	353
5	2852	231.076194642785	354
5	2852	231.076194642785	355
5	2852	231.076194642785	356
5	2877	232.887345364356	357
5	2877	232.887345364356	358
5	2877	232.887345364356	359
5	2903	234.06370934658	360
5	2903	234.06370934658	361
5	2903	234.06370934658	362
5	2926	235.408478615842	363
5	2926	235.408478615842	364
5	2926	235.408478615842	365
5	2944	238.631727217525	366
5	2944	238.631727217525	367
5	2944	238.631727217525	368
6	23	0.250512463835	0
6	46	2.201100901636	1
6	96	7.964930388056	2
6	113	9.59414835313	3
6	142	10.862261049973	4
6	172	14.609110754278	5
6	192	16.19375867677	6
6	228	19.265029281409	7
6	262	24.333427600594	8
6	285	25.797108677419	9
6	331	29.238283449652	10
6	384	34.289514904022	11
6	406	36.748693379041	12
6	432	38.396366338659	13
6	448	39.646763899613	14
6	513	45.240779528758	15
6	536	47.195189828708	16
6	553	48.222290757893	17
6	577	49.26773242695	18
6	670	55.860928556617	19
6	716	58.570986906699	20
6	739	60.281854422314	21
6	760	61.884733109743	22
6	777	63.248682363673	23
6	808	65.164082309586	24
6	828	69.656728829806	25
6	853	71.334750540214	26
6	882	73.584415477012	27
6	905	75.54012094939	28
6	932	76.784372513678	29
6	955	78.061801346048	30
6	978	83.268592512685	31
6	1028	87.092536795547	32
6	1071	89.668028504083	33
6	1117	92.490828123895	34
6	1134	93.953830779486	35
6	1160	95.10337527303	36
6	1242	101.596214528582	37
6	1263	102.673760384681	38
6	1305	106.138501486284	39
6	1357	111.180445384574	40
6	1377	112.299186951387	41
6	1446	116.85041289544	42
6	1467	119.530152478296	43
6	1494	121.462235363809	44
6	1540	123.945161251757	45
6	1588	127.905844614559	46
6	1630	130.997215400387	47
6	1680	133.976397304157	48
6	1703	135.224677062453	49
6	1751	140.128046597575	50
6	1774	141.833436225142	51
6	1816	144.798051877085	52
6	1866	147.950846483334	53
6	1909	151.066969708246	54
6	1936	156.022246108142	55
6	1984	159.778206960439	56
6	2007	161.435480543023	57
6	2053	163.799067742516	58
6	2072	164.969845341481	59
6	2101	168.655947821011	60
6	2128	173.467045493747	61
6	2156	177.526264854201	62
6	2203	180.878413938945	63
6	2229	182.538214321329	64
6	2249	184.158871613279	65
6	2275	185.611473924952	66
6	2298	186.835463814019	67
6	2321	188.25264835877	68
6	2344	189.492621693943	69
6	2364	191.258557156368	70
6	2394	194.95005023101	71
6	2414	196.816842603571	72
6	2439	199.805839876818	73
6	2460	200.993716960507	74
6	2510	205.144075150438	75
6	2533	206.966426827976	76
6	2556	208.550722819416	77
6	2588	212.227773120436	78
6	2611	213.723292438756	79
6	2700	220.34951414678	80
6	2765	224.094190182088	81
6	2790	227.171690986571	82
6	2840	230.024408906225	83
6	2857	231.086194642785	84
6	2883	232.897345364356	85
6	2929	235.418478615842	86

