version 2
run General-2-20231008-07:01:11-16668
attr configname General
attr datetime 20231008-07:01:11
attr experiment General
attr inifile omnetpp.ini
attr iterationvars ""
attr iterationvarsf ""
attr measurement ""
attr network Network2
attr processid 16668
attr repetition 2
attr replication #2
attr resultdir results
attr runnumber 2
attr seedset 2
param Network2.node[*].transmissionTime "uniform(1s, 2s)"
param Network2.node[*].delayTime "uniform(0.01s, 0.2s)"
param Network2.node[*].processingTime exponential(0.01s)
param Network2.node[*].lossProbability 0.25

vector 0 Network2.node[0] txVector ETV
vector 1 Network2.node[1] txVector ETV
vector 2 Network2.node[3] txVector ETV
vector 3 Network2.node[2] txVector ETV
vector 4 Network2.node[4] txVector ETV
vector 5 Network2.node[6] txVector ETV
vector 6 Network2.node[5] rxVector ETV
0	1	0.092839031499	0
0	3	1.277921112972	1
0	26	3.20946197656	2
0	49	4.723040094385	3
0	72	6.217329862313	4
0	95	8.01096731496	5
0	118	9.478809806536	6
0	141	11.449390121288	7
0	164	13.333861720533	8
0	187	14.996063742571	9
0	189	16.799515871814	10
0	212	18.028901835921	11
0	214	19.249739752867	12
0	237	21.168198393675	13
0	260	22.704652091738	14
0	283	23.7999401414	15
0	302	25.019230114313	16
0	325	26.049819592171	17
0	348	27.483565507474	18
0	350	28.933792687039	19
0	352	30.641763861542	20
0	375	32.419351773587	21
0	377	33.89489074449	22
0	379	35.059757886938	23
0	402	36.887211237353	24
0	425	38.39329806554	25
0	444	39.812205377751	26
0	467	41.542885577557	27
0	485	43.141431959131	28
0	508	44.324118294305	29
0	531	45.860461765918	30
0	554	47.266640197736	31
0	577	49.255502292904	32
0	579	50.308992467373	33
0	598	51.741125568067	34
0	621	53.634031446203	35
0	644	54.663813195209	36
0	667	56.606983918249	37
0	669	58.402699192305	38
0	692	59.578996202693	39
0	715	60.890525607177	40
0	738	62.428884638724	41
0	740	64.057894101384	42
0	742	65.763397126709	43
0	762	66.861865750764	44
0	764	68.082155638857	45
0	787	69.409549821884	46
0	789	71.077271370467	47
0	812	72.20813584213	48
0	814	73.994364358269	49
0	816	75.806869941781	50
0	839	77.339710833988	51
0	862	78.390445457323	52
0	885	80.131147365802	53
0	908	81.653905423143	54
0	910	83.352104778885	55
0	933	84.977893393737	56
0	935	86.337919714645	57
0	937	87.375007512065	58
0	956	89.02098804388	59
0	958	91.003066757478	60
0	960	93.001570019888	61
0	962	94.448038129153	62
0	985	96.210468689695	63
0	1008	97.471984894497	64
0	1031	99.396000085881	65
0	1054	101.110655326413	66
0	1077	102.250839510251	67
0	1100	103.32153654659	68
0	1102	104.458498898678	69
0	1125	105.885876363393	70
0	1148	106.912822547618	71
0	1171	108.911102076543	72
0	1194	110.520012918876	73
0	1217	111.903642070496	74
0	1240	113.752979370316	75
0	1258	115.28278324452	76
0	1268	116.726440229702	77
0	1270	117.840074159221	78
0	1293	119.481251468665	79
0	1300	120.74144913607	80
0	1302	122.183464474759	81
0	1321	123.858312076905	82
0	1323	125.826457923993	83
0	1346	127.244150338245	84
0	1369	128.778164923207	85
0	1392	130.636618300124	86
0	1412	131.81856988209	87
0	1435	133.721715333654	88
0	1437	134.742279936808	89
0	1456	135.842873285307	90
0	1458	137.75663727244	91
0	1477	138.817419098472	92
0	1500	140.247126524584	93
0	1523	142.187795483522	94
0	1525	143.347743530773	95
0	1527	144.560780074463	96
0	1534	146.203960396365	97
0	1557	148.186225063649	98
0	1580	149.845973250239	99
0	1603	151.190537248987	100
0	1626	152.65474048794	101
0	1649	154.402371326012	102
0	1672	155.650417972605	103
0	1695	157.217081440396	104
0	1718	158.802857664663	105
0	1720	160.425042910518	106
0	1722	161.609547179442	107
0	1741	163.170678873796	108
0	1764	164.235261631681	109
0	1787	165.341124278976	110
0	1810	166.384464124235	111
0	1833	168.108407574257	112
0	1835	169.322160814906	113
0	1837	171.173438083863	114
0	1856	172.932417983439	115
0	1879	174.565354963316	116
0	1902	176.195956360333	117
0	1904	177.738995103648	118
0	1927	179.350779440736	119
0	1950	180.530060747888	120
0	1952	181.728686812583	121
0	1972	183.225237692257	122
0	1995	184.419347653182	123
0	2018	185.526063739571	124
0	2041	186.886586439113	125
0	2064	188.319088018981	126
0	2087	189.395773634098	127
0	2089	190.86356980006	128
0	2112	192.720872738182	129
0	2114	194.174129342677	130
0	2116	195.889668917533	131
0	2139	197.859532914607	132
0	2141	199.518739253067	133
0	2164	200.865480211814	134
0	2166	202.040043932171	135
0	2168	203.383213135898	136
0	2170	204.677716818889	137
0	2190	206.61399767992	138
0	2213	207.803044459102	139
0	2236	209.786500784819	140
0	2259	211.30713184785	141
0	2261	212.7378384527	142
0	2280	214.327152036847	143
0	2303	215.473283113464	144
0	2326	217.056249218079	145
0	2349	218.579574391263	146
0	2372	219.933453172928	147
0	2374	221.383823047875	148
0	2397	222.921346259321	149
0	2420	224.917007053056	150
0	2443	226.470879966411	151
0	2445	227.505448822881	152
0	2447	229.109722706973	153
0	2467	230.394371103281	154
0	2490	232.291281146947	155
0	2513	234.211806180905	156
0	2515	235.345538170095	157
0	2538	237.185512018874	158
0	2561	238.849094591122	159
1	5	1.317434556699	0
1	5	1.317434556699	1
1	5	1.317434556699	2
1	5	1.317434556699	3
1	28	3.22150077773	4
1	28	3.22150077773	5
1	28	3.22150077773	6
1	28	3.22150077773	7
1	51	4.741381791554	8
1	51	4.741381791554	9
1	51	4.741381791554	10
1	51	4.741381791554	11
1	74	6.236004967583	12
1	74	6.236004967583	13
1	74	6.236004967583	14
1	74	6.236004967583	15
1	97	8.024171754298	16
1	97	8.024171754298	17
1	97	8.024171754298	18
1	97	8.024171754298	19
1	120	9.504917111539	20
1	120	9.504917111539	21
1	120	9.504917111539	22
1	120	9.504917111539	23
1	143	11.467456278192	24
1	143	11.467456278192	25
1	143	11.467456278192	26
1	143	11.467456278192	27
1	166	13.348764166394	28
1	166	13.348764166394	29
1	166	13.348764166394	30
1	166	13.348764166394	31
1	191	16.830652229827	32
1	191	16.830652229827	33
1	191	16.830652229827	34
1	191	16.830652229827	35
1	216	19.268706706992	36
1	216	19.268706706992	37
1	216	19.268706706992	38
1	216	19.268706706992	39
1	239	21.182074428243	40
1	239	21.182074428243	41
1	239	21.182074428243	42
1	239	21.182074428243	43
1	262	22.71798943291	44
1	262	22.71798943291	45
1	262	22.71798943291	46
1	262	22.71798943291	47
1	285	23.828050643937	48
1	285	23.828050643937	49
1	285	23.828050643937	50
1	285	23.828050643937	51
1	304	25.033648318599	52
1	304	25.033648318599	53
1	304	25.033648318599	54
1	304	25.033648318599	55
1	327	26.068666887872	56
1	327	26.068666887872	57
1	327	26.068666887872	58
1	327	26.068666887872	59
1	354	30.666774316689	60
1	354	30.666774316689	61
1	354	30.666774316689	62
1	354	30.666774316689	63
1	381	35.077516607634	64
1	381	35.077516607634	65
1	381	35.077516607634	66
1	381	35.077516607634	67
1	404	36.899680744194	68
1	404	36.899680744194	69
1	404	36.899680744194	70
1	404	36.899680744194	71
1	427	38.404008721296	72
1	427	38.404008721296	73
1	427	38.404008721296	74
1	427	38.404008721296	75
1	446	39.838471939014	76
1	446	39.838471939014	77
1	446	39.838471939014	78
1	446	39.838471939014	79
1	469	41.554516491603	80
1	469	41.554516491603	81
1	469	41.554516491603	82
1	469	41.554516491603	83
1	487	43.165098376993	84
1	487	43.165098376993	85
1	487	43.165098376993	86
1	487	43.165098376993	87
1	510	44.3376353496	88
1	510	44.3376353496	89
1	510	44.3376353496	90
1	510	44.3376353496	91
1	533	45.871083792862	92
1	533	45.871083792862	93
1	533	45.871083792862	94
1	533	45.871083792862	95
1	556	47.3295243881	96
1	556	47.3295243881	97
1	556	47.3295243881	98
1	556	47.3295243881	99
1	581	50.322381556963	100
1	581	50.322381556963	101
1	581	50.322381556963	102
1	581	50.322381556963	103
1	600	51.751421394093	104
1	600	51.751421394093	105
1	600	51.751421394093	106
1	600	51.751421394093	107
1	623	53.663031342576	108
1	623	53.663031342576	109
1	623	53.663031342576	110
1	623	53.663031342576	111
1	646	54.68195189436	112
1	646	54.68195189436	113
1	646	54.68195189436	114
1	646	54.68195189436	115
1	671	58.421966160116	116
1	671	58.421966160116	117
1	671	58.421966160116	118
1	671	58.421966160116	119
1	694	59.610223781795	120
1	694	59.610223781795	121
1	694	59.610223781795	122
1	694	59.610223781795	123
1	717	60.923778475516	124
1	717	60.923778475516	125
1	717	60.923778475516	126
1	717	60.923778475516	127
1	744	65.79681518573	128
1	744	65.79681518573	129
1	744	65.79681518573	130
1	744	65.79681518573	131
1	766	68.125500423746	132
1	766	68.125500423746	133
1	766	68.125500423746	134
1	766	68.125500423746	135
1	791	71.08967860529	136
1	791	71.08967860529	137
1	791	71.08967860529	138
1	791	71.08967860529	139
1	818	75.833286206869	140
1	818	75.833286206869	141
1	818	75.833286206869	142
1	818	75.833286206869	143
1	841	77.353333084324	144
1	841	77.353333084324	145
1	841	77.353333084324	146
1	841	77.353333084324	147
1	864	78.402981501895	148
1	864	78.402981501895	149
1	864	78.402981501895	150
1	864	78.402981501895	151
1	887	80.142359652209	152
1	887	80.142359652209	153
1	887	80.142359652209	154
1	887	80.142359652209	155
1	912	83.363800149381	156
1	912	83.363800149381	157
1	912	83.363800149381	158
1	912	83.363800149381	159
1	939	87.389702112387	160
1	939	87.389702112387	161
1	939	87.389702112387	162
1	939	87.389702112387	163
1	964	94.468159633646	164
1	964	94.468159633646	165
1	964	94.468159633646	166
1	964	94.468159633646	167
1	987	96.230433917031	168
1	987	96.230433917031	169
1	987	96.230433917031	170
1	987	96.230433917031	171
1	1010	97.520420869253	172
1	1010	97.520420869253	173
1	1010	97.520420869253	174
1	1010	97.520420869253	175
1	1033	99.418671489105	176
1	1033	99.418671489105	177
1	1033	99.418671489105	178
1	1033	99.418671489105	179
1	1056	101.12340712191	180
1	1056	101.12340712191	181
1	1056	101.12340712191	182
1	1056	101.12340712191	183
1	1079	102.284692150563	184
1	1079	102.284692150563	185
1	1079	102.284692150563	186
1	1079	102.284692150563	187
1	1104	104.469569052566	188
1	1104	104.469569052566	189
1	1104	104.469569052566	190
1	1104	104.469569052566	191
1	1127	105.904430953933	192
1	1127	105.904430953933	193
1	1127	105.904430953933	194
1	1127	105.904430953933	195
1	1150	106.925544230086	196
1	1150	106.925544230086	197
1	1150	106.925544230086	198
1	1150	106.925544230086	199
1	1173	108.932211543729	200
1	1173	108.932211543729	201
1	1173	108.932211543729	202
1	1173	108.932211543729	203
1	1196	110.538787898797	204
1	1196	110.538787898797	205
1	1196	110.538787898797	206
1	1196	110.538787898797	207
1	1219	111.917232491884	208
1	1219	111.917232491884	209
1	1219	111.917232491884	210
1	1219	111.917232491884	211
1	1242	113.782482913471	212
1	1242	113.782482913471	213
1	1242	113.782482913471	214
1	1242	113.782482913471	215
1	1260	115.308000920145	216
1	1260	115.308000920145	217
1	1260	115.308000920145	218
1	1260	115.308000920145	219
1	1272	117.857714463155	220
1	1272	117.857714463155	221
1	1272	117.857714463155	222
1	1272	117.857714463155	223
1	1295	119.507824279358	224
1	1295	119.507824279358	225
1	1295	119.507824279358	226
1	1295	119.507824279358	227
1	1304	122.199309977112	228
1	1304	122.199309977112	229
1	1304	122.199309977112	230
1	1304	122.199309977112	231
1	1325	125.846806885548	232
1	1325	125.846806885548	233
1	1325	125.846806885548	234
1	1325	125.846806885548	235
1	1348	127.257519933783	236
1	1348	127.257519933783	237
1	1348	127.257519933783	238
1	1348	127.257519933783	239
1	1371	128.800844657505	240
1	1371	128.800844657505	241
1	1371	128.800844657505	242
1	1371	128.800844657505	243
1	1394	130.655890475642	244
1	1394	130.655890475642	245
1	1394	130.655890475642	246
1	1394	130.655890475642	247
1	1414	131.828685557433	248
1	1414	131.828685557433	249
1	1414	131.828685557433	250
1	1414	131.828685557433	251
1	1439	134.761060622741	252
1	1439	134.761060622741	253
1	1439	134.761060622741	254
1	1439	134.761060622741	255
1	1460	137.782458967238	256
1	1460	137.782458967238	257
1	1460	137.782458967238	258
1	1460	137.782458967238	259
1	1479	138.83166306196	260
1	1479	138.83166306196	261
1	1479	138.83166306196	262
1	1479	138.83166306196	263
1	1502	140.26278643742	264
1	1502	140.26278643742	265
1	1502	140.26278643742	266
1	1502	140.26278643742	267
1	1529	144.576671957137	268
1	1529	144.576671957137	269
1	1529	144.576671957137	270
1	1529	144.576671957137	271
1	1536	146.218043328783	272
1	1536	146.218043328783	273
1	1536	146.218043328783	274
1	1536	146.218043328783	275
1	1559	148.198930856504	276
1	1559	148.198930856504	277
1	1559	148.198930856504	278
1	1559	148.198930856504	279
1	1582	149.868079107791	280
1	1582	149.868079107791	281
1	1582	149.868079107791	282
1	1582	149.868079107791	283
1	1605	151.206339079704	284
1	1605	151.206339079704	285
1	1605	151.206339079704	286
1	1605	151.206339079704	287
1	1628	152.670463008955	288
1	1628	152.670463008955	289
1	1628	152.670463008955	290
1	1628	152.670463008955	291
1	1651	154.413870124577	292
1	1651	154.413870124577	293
1	1651	154.413870124577	294
1	1651	154.413870124577	295
1	1674	155.663654445646	296
1	1674	155.663654445646	297
1	1674	155.663654445646	298
1	1674	155.663654445646	299
1	1697	157.231129526445	300
1	1697	157.231129526445	301
1	1697	157.231129526445	302
1	1697	157.231129526445	303
1	1724	161.625520804115	304
1	1724	161.625520804115	305
1	1724	161.625520804115	306
1	1724	161.625520804115	307
1	1743	163.193585140549	308
1	1743	163.193585140549	309
1	1743	163.193585140549	310
1	1743	163.193585140549	311
1	1766	164.256295774788	312
1	1766	164.256295774788	313
1	1766	164.256295774788	314
1	1766	164.256295774788	315
1	1789	165.3536567652	316
1	1789	165.3536567652	317
1	1789	165.3536567652	318
1	1789	165.3536567652	319
1	1812	166.395852954171	320
1	1812	166.395852954171	321
1	1812	166.395852954171	322
1	1812	166.395852954171	323
1	1839	171.188161460963	324
1	1839	171.188161460963	325
1	1839	171.188161460963	326
1	1839	171.188161460963	327
1	1858	172.949885443518	328
1	1858	172.949885443518	329
1	1858	172.949885443518	330
1	1858	172.949885443518	331
1	1881	174.585495281666	332
1	1881	174.585495281666	333
1	1881	174.585495281666	334
1	1881	174.585495281666	335
1	1906	177.768112931619	336
1	1906	177.768112931619	337
1	1906	177.768112931619	338
1	1906	177.768112931619	339
1	1929	179.369418142633	340
1	1929	179.369418142633	341
1	1929	179.369418142633	342
1	1929	179.369418142633	343
1	1954	181.739655177314	344
1	1954	181.739655177314	345
1	1954	181.739655177314	346
1	1954	181.739655177314	347
1	1974	183.24084317187	348
1	1974	183.24084317187	349
1	1974	183.24084317187	350
1	1974	183.24084317187	351
1	1997	184.432985421488	352
1	1997	184.432985421488	353
1	1997	184.432985421488	354
1	1997	184.432985421488	355
1	2020	185.538192083794	356
1	2020	185.538192083794	357
1	2020	185.538192083794	358
1	2020	185.538192083794	359
1	2043	186.904945741254	360
1	2043	186.904945741254	361
1	2043	186.904945741254	362
1	2043	186.904945741254	363
1	2066	188.332581075597	364
1	2066	188.332581075597	365
1	2066	188.332581075597	366
1	2066	188.332581075597	367
1	2091	190.875659552127	368
1	2091	190.875659552127	369
1	2091	190.875659552127	370
1	2091	190.875659552127	371
1	2118	195.899882334223	372
1	2118	195.899882334223	373
1	2118	195.899882334223	374
1	2118	195.899882334223	375
1	2143	199.540584084925	376
1	2143	199.540584084925	377
1	2143	199.540584084925	378
1	2143	199.540584084925	379
1	2172	204.687792653445	380
1	2172	204.687792653445	381
1	2172	204.687792653445	382
1	2172	204.687792653445	383
1	2192	206.626263686222	384
1	2192	206.626263686222	385
1	2192	206.626263686222	386
1	2192	206.626263686222	387
1	2215	207.817918019583	388
1	2215	207.817918019583	389
1	2215	207.817918019583	390
1	2215	207.817918019583	391
1	2238	209.823545945072	392
1	2238	209.823545945072	393
1	2238	209.823545945072	394
1	2238	209.823545945072	395
1	2263	212.754285070041	396
1	2263	212.754285070041	397
1	2263	212.754285070041	398
1	2263	212.754285070041	399
1	2282	214.342647083084	400
1	2282	214.342647083084	401
1	2282	214.342647083084	402
1	2282	214.342647083084	403
1	2305	215.486614423467	404
1	2305	215.486614423467	405
1	2305	215.486614423467	406
1	2305	215.486614423467	407
1	2328	217.066775701753	408
1	2328	217.066775701753	409
1	2328	217.066775701753	410
1	2328	217.066775701753	411
1	2351	218.608068108459	412
1	2351	218.608068108459	413
1	2351	218.608068108459	414
1	2351	218.608068108459	415
1	2376	221.431447560226	416
1	2376	221.431447560226	417
1	2376	221.431447560226	418
1	2376	221.431447560226	419
1	2399	222.936724023705	420
1	2399	222.936724023705	421
1	2399	222.936724023705	422
1	2399	222.936724023705	423
1	2422	224.931408679653	424
1	2422	224.931408679653	425
1	2422	224.931408679653	426
1	2422	224.931408679653	427
1	2449	229.136293185963	428
1	2449	229.136293185963	429
1	2449	229.136293185963	430
1	2449	229.136293185963	431
1	2469	230.426897452849	432
1	2469	230.426897452849	433
1	2469	230.426897452849	434
1	2469	230.426897452849	435
1	2492	232.344969674815	436
1	2492	232.344969674815	437
1	2492	232.344969674815	438
1	2492	232.344969674815	439
1	2517	235.364434611324	440
1	2517	235.364434611324	441
1	2517	235.364434611324	442
1	2517	235.364434611324	443
1	2540	237.196136595578	444
1	2540	237.196136595578	445
1	2540	237.196136595578	446
1	2540	237.196136595578	447
2	10	1.331444330932	0
2	10	1.331444330932	1
2	10	1.331444330932	2
2	35	3.239401926024	3
2	35	3.239401926024	4
2	35	3.239401926024	5
2	64	4.785935253439	6
2	64	4.785935253439	7
2	64	4.785935253439	8
2	88	6.300434548139	9
2	88	6.300434548139	10
2	88	6.300434548139	11
2	102	8.035028367231	12
2	102	8.035028367231	13
2	102	8.035028367231	14
2	125	9.52147604468	15
2	125	9.52147604468	16
2	125	9.52147604468	17
2	155	11.495295197188	18
2	155	11.495295197188	19
2	155	11.495295197188	20
2	174	13.376272338343	21
2	174	13.376272338343	22
2	174	13.376272338343	23
2	196	16.842521275841	24
2	196	16.842521275841	25
2	196	16.842521275841	26
2	226	19.301258545801	27
2	226	19.301258545801	28
2	226	19.301258545801	29
2	245	21.194895553172	30
2	245	21.194895553172	31
2	245	21.194895553172	32
2	267	22.731352607649	33
2	267	22.731352607649	34
2	267	22.731352607649	35
2	298	23.873784291054	36
2	298	23.873784291054	37
2	298	23.873784291054	38
2	317	25.083779732317	39
2	317	25.083779732317	40
2	317	25.083779732317	41
2	333	26.084609226766	42
2	333	26.084609226766	43
2	333	26.084609226766	44
2	359	30.679560440476	45
2	359	30.679560440476	46
2	359	30.679560440476	47
2	386	35.090847011415	48
2	386	35.090847011415	49
2	386	35.090847011415	50
2	409	36.915090779265	51
2	409	36.915090779265	52
2	409	36.915090779265	53
2	432	38.416574382431	54
2	432	38.416574382431	55
2	432	38.416574382431	56
2	451	39.849605724761	57
2	451	39.849605724761	58
2	451	39.849605724761	59
2	475	41.566126120376	60
2	475	41.566126120376	61
2	475	41.566126120376	62
2	504	43.2144641356	63
2	504	43.2144641356	64
2	504	43.2144641356	65
2	515	44.348460888404	66
2	515	44.348460888404	67
2	515	44.348460888404	68
2	538	45.888392803211	69
2	538	45.888392803211	70
2	538	45.888392803211	71
2	562	47.347125485801	72
2	562	47.347125485801	73
2	562	47.347125485801	74
2	589	50.345365428401	75
2	589	50.345365428401	76
2	589	50.345365428401	77
2	613	51.78681225741	78
2	613	51.78681225741	79
2	613	51.78681225741	80
2	632	53.696667716376	81
2	632	53.696667716376	82
2	632	53.696667716376	83
2	659	54.724263204224	84
2	659	54.724263204224	85
2	659	54.724263204224	86
2	677	58.43732192525	87
2	677	58.43732192525	88
2	677	58.43732192525	89
2	700	59.627034154249	90
2	700	59.627034154249	91
2	700	59.627034154249	92
2	723	60.940811701725	93
2	723	60.940811701725	94
2	723	60.940811701725	95
2	750	65.817075484738	96
2	750	65.817075484738	97
2	750	65.817075484738	98
2	771	68.137269984843	99
2	771	68.137269984843	100
2	771	68.137269984843	101
2	797	71.100639710895	102
2	797	71.100639710895	103
2	797	71.100639710895	104
2	823	75.844959347665	105
2	823	75.844959347665	106
2	823	75.844959347665	107
2	854	77.402535436136	108
2	854	77.402535436136	109
2	854	77.402535436136	110
2	870	78.414777943355	111
2	870	78.414777943355	112
2	870	78.414777943355	113
2	898	80.165992794405	114
2	898	80.165992794405	115
2	898	80.165992794405	116
2	917	83.381296446879	117
2	917	83.381296446879	118
2	917	83.381296446879	119
2	945	87.403347863853	120
2	945	87.403347863853	121
2	945	87.403347863853	122
2	969	94.486815656461	123
2	969	94.486815656461	124
2	969	94.486815656461	125
2	992	96.240957984057	126
2	992	96.240957984057	127
2	992	96.240957984057	128
2	1016	97.54147836151	129
2	1016	97.54147836151	130
2	1016	97.54147836151	131
2	1039	99.441028254546	132
2	1039	99.441028254546	133
2	1039	99.441028254546	134
2	1061	101.140464479482	135
2	1061	101.140464479482	136
2	1061	101.140464479482	137
2	1092	102.312480595676	138
2	1092	102.312480595676	139
2	1092	102.312480595676	140
2	1112	104.4976592724	141
2	1112	104.4976592724	142
2	1112	104.4976592724	143
2	1132	105.934400795662	144
2	1132	105.934400795662	145
2	1132	105.934400795662	146
2	1155	106.937034782947	147
2	1155	106.937034782947	148
2	1155	106.937034782947	149
2	1180	108.948416788076	150
2	1180	108.948416788076	151
2	1180	108.948416788076	152
2	1201	110.552554754312	153
2	1201	110.552554754312	154
2	1201	110.552554754312	155
2	1236	111.975112765981	156
2	1236	111.975112765981	157
2	1236	111.975112765981	158
2	1247	113.793682595367	159
2	1247	113.793682595367	160
2	1247	113.793682595367	161
2	1278	117.870926658172	162
2	1278	117.870926658172	163
2	1278	117.870926658172	164
2	1314	122.221981420198	165
2	1314	122.221981420198	166
2	1314	122.221981420198	167
2	1331	125.863339683821	168
2	1331	125.863339683821	169
2	1331	125.863339683821	170
2	1353	127.268137347836	171
2	1353	127.268137347836	172
2	1353	127.268137347836	173
2	1376	128.814251103707	174
2	1376	128.814251103707	175
2	1376	128.814251103707	176
2	1399	130.666894400029	177
2	1399	130.666894400029	178
2	1399	130.666894400029	179
2	1423	131.861844298201	180
2	1423	131.861844298201	181
2	1423	131.861844298201	182
2	1445	134.780722091286	183
2	1445	134.780722091286	184
2	1445	134.780722091286	185
2	1468	137.815751535505	186
2	1468	137.815751535505	187
2	1468	137.815751535505	188
2	1484	138.847468611237	189
2	1484	138.847468611237	190
2	1484	138.847468611237	191
2	1508	140.28022458143	192
2	1508	140.28022458143	193
2	1508	140.28022458143	194
2	1543	146.234229049921	195
2	1543	146.234229049921	196
2	1543	146.234229049921	197
2	1565	148.22046623071	198
2	1565	148.22046623071	199
2	1565	148.22046623071	200
2	1588	149.886980269563	201
2	1588	149.886980269563	202
2	1588	149.886980269563	203
2	1610	151.219189643399	204
2	1610	151.219189643399	205
2	1610	151.219189643399	206
2	1633	152.682325540088	207
2	1633	152.682325540088	208
2	1633	152.682325540088	209
2	1660	154.441063637217	210
2	1660	154.441063637217	211
2	1660	154.441063637217	212
2	1691	155.711921974926	213
2	1691	155.711921974926	214
2	1691	155.711921974926	215
2	1708	157.266442789296	216
2	1708	157.266442789296	217
2	1708	157.266442789296	218
2	1737	161.653396723547	219
2	1737	161.653396723547	220
2	1737	161.653396723547	221
2	1749	163.208700969721	222
2	1749	163.208700969721	223
2	1749	163.208700969721	224
2	1771	164.266984889199	225
2	1771	164.266984889199	226
2	1771	164.266984889199	227
2	1797	165.382055775405	228
2	1797	165.382055775405	229
2	1797	165.382055775405	230
2	1818	166.41656564019	231
2	1818	166.41656564019	232
2	1818	166.41656564019	233
2	1852	171.233928931931	234
2	1852	171.233928931931	235
2	1852	171.233928931931	236
2	1865	172.969717169239	237
2	1865	172.969717169239	238
2	1865	172.969717169239	239
2	1894	174.61835688502	240
2	1894	174.61835688502	241
2	1894	174.61835688502	242
2	1917	177.796082537658	243
2	1917	177.796082537658	244
2	1917	177.796082537658	245
2	1942	179.424135346429	246
2	1942	179.424135346429	247
2	1942	179.424135346429	248
2	1960	181.751897443061	249
2	1960	181.751897443061	250
2	1960	181.751897443061	251
2	1980	183.25755566548	252
2	1980	183.25755566548	253
2	1980	183.25755566548	254
2	2010	184.46495229688	255
2	2010	184.46495229688	256
2	2010	184.46495229688	257
2	2026	185.554251316902	258
2	2026	185.554251316902	259
2	2026	185.554251316902	260
2	2048	186.926385456078	261
2	2048	186.926385456078	262
2	2048	186.926385456078	263
2	2072	188.348542189826	264
2	2072	188.348542189826	265
2	2072	188.348542189826	266
2	2098	190.896767327086	267
2	2098	190.896767327086	268
2	2098	190.896767327086	269
2	2124	195.913591367709	270
2	2124	195.913591367709	271
2	2124	195.913591367709	272
2	2149	199.556656876273	273
2	2149	199.556656876273	274
2	2149	199.556656876273	275
2	2182	204.725023180381	276
2	2182	204.725023180381	277
2	2182	204.725023180381	278
2	2204	206.667265915592	279
2	2204	206.667265915592	280
2	2204	206.667265915592	281
2	2228	207.896055462548	282
2	2228	207.896055462548	283
2	2228	207.896055462548	284
2	2246	209.85973744721	285
2	2246	209.85973744721	286
2	2246	209.85973744721	287
2	2269	212.76878004339	288
2	2269	212.76878004339	289
2	2269	212.76878004339	290
2	2287	214.353437637718	291
2	2287	214.353437637718	292
2	2287	214.353437637718	293
2	2319	215.520125345681	294
2	2319	215.520125345681	295
2	2319	215.520125345681	296
2	2333	217.089650898375	297
2	2333	217.089650898375	298
2	2333	217.089650898375	299
2	2356	218.621096467343	300
2	2356	218.621096467343	301
2	2356	218.621096467343	302
2	2386	221.467395299308	303
2	2386	221.467395299308	304
2	2386	221.467395299308	305
2	2410	222.962433889361	306
2	2410	222.962433889361	307
2	2410	222.962433889361	308
2	2428	224.953817220814	309
2	2428	224.953817220814	310
2	2428	224.953817220814	311
2	2463	229.180140458825	312
2	2463	229.180140458825	313
2	2463	229.180140458825	314
2	2477	230.454734998183	315
2	2477	230.454734998183	316
2	2477	230.454734998183	317
2	2498	232.368854806293	318
2	2498	232.368854806293	319
2	2498	232.368854806293	320
2	2523	235.375665658298	321
2	2523	235.375665658298	322
2	2523	235.375665658298	323
2	2545	237.206454709295	324
2	2545	237.206454709295	325
2	2545	237.206454709295	326
3	11	1.332888171871	0
3	11	1.332888171871	1
3	11	1.332888171871	2
3	11	1.332888171871	3
3	33	3.23449155303	4
3	33	3.23449155303	5
3	33	3.23449155303	6
3	33	3.23449155303	7
3	59	4.765707436621	8
3	59	4.765707436621	9
3	59	4.765707436621	10
3	59	4.765707436621	11
3	82	6.282061043494	12
3	82	6.282061043494	13
3	82	6.282061043494	14
3	82	6.282061043494	15
3	104	8.042028944848	16
3	104	8.042028944848	17
3	104	8.042028944848	18
3	104	8.042028944848	19
3	126	9.527177319113	20
3	126	9.527177319113	21
3	126	9.527177319113	22
3	126	9.527177319113	23
3	148	11.482348385438	24
3	148	11.482348385438	25
3	148	11.482348385438	26
3	148	11.482348385438	27
3	175	13.383353698737	28
3	175	13.383353698737	29
3	175	13.383353698737	30
3	175	13.383353698737	31
3	197	16.851483989998	32
3	197	16.851483989998	33
3	197	16.851483989998	34
3	197	16.851483989998	35
3	221	19.286793173401	36
3	221	19.286793173401	37
3	221	19.286793173401	38
3	221	19.286793173401	39
3	246	21.204098189793	40
3	246	21.204098189793	41
3	246	21.204098189793	42
3	246	21.204098189793	43
3	278	22.76173242726	44
3	278	22.76173242726	45
3	278	22.76173242726	46
3	278	22.76173242726	47
3	291	23.851589110976	48
3	291	23.851589110976	49
3	291	23.851589110976	50
3	291	23.851589110976	51
3	312	25.06780087644	52
3	312	25.06780087644	53
3	312	25.06780087644	54
3	312	25.06780087644	55
3	340	26.109384377759	56
3	340	26.109384377759	57
3	340	26.109384377759	58
3	340	26.109384377759	59
3	364	30.695643505479	60
3	364	30.695643505479	61
3	364	30.695643505479	62
3	364	30.695643505479	63
3	387	35.098362748493	64
3	387	35.098362748493	65
3	387	35.098362748493	66
3	387	35.098362748493	67
3	416	36.930733287716	68
3	416	36.930733287716	69
3	416	36.930733287716	70
3	416	36.930733287716	71
3	437	38.434994115499	72
3	437	38.434994115499	73
3	437	38.434994115499	74
3	437	38.434994115499	75
3	458	39.866207363302	76
3	458	39.866207363302	77
3	458	39.866207363302	78
3	458	39.866207363302	79
3	493	43.186887902793	80
3	493	43.186887902793	81
3	493	43.186887902793	82
3	493	43.186887902793	83
3	523	44.386640645038	84
3	523	44.386640645038	85
3	523	44.386640645038	86
3	523	44.386640645038	87
3	549	45.939430678368	88
3	549	45.939430678368	89
3	549	45.939430678368	90
3	549	45.939430678368	91
3	569	47.374774238882	92
3	569	47.374774238882	93
3	569	47.374774238882	94
3	569	47.374774238882	95
3	593	50.360517746991	96
3	593	50.360517746991	97
3	593	50.360517746991	98
3	593	50.360517746991	99
3	606	51.7727976724	100
3	606	51.7727976724	101
3	606	51.7727976724	102
3	606	51.7727976724	103
3	631	53.690892005198	104
3	631	53.690892005198	105
3	631	53.690892005198	106
3	631	53.690892005198	107
3	654	54.711998600598	108
3	654	54.711998600598	109
3	654	54.711998600598	110
3	654	54.711998600598	111
3	678	58.438206333744	112
3	678	58.438206333744	113
3	678	58.438206333744	114
3	678	58.438206333744	115
3	710	59.657750307962	116
3	710	59.657750307962	117
3	710	59.657750307962	118
3	710	59.657750307962	119
3	722	60.93658877317	120
3	722	60.93658877317	121
3	722	60.93658877317	122
3	722	60.93658877317	123
3	749	65.80961159931	124
3	749	65.80961159931	125
3	749	65.80961159931	126
3	749	65.80961159931	127
3	782	68.17275563322	128
3	782	68.17275563322	129
3	782	68.17275563322	130
3	782	68.17275563322	131
3	796	71.099867968409	132
3	796	71.099867968409	133
3	796	71.099867968409	134
3	796	71.099867968409	135
3	828	75.856953231313	136
3	828	75.856953231313	137
3	828	75.856953231313	138
3	828	75.856953231313	139
3	849	77.376823575183	140
3	849	77.376823575183	141
3	849	77.376823575183	142
3	849	77.376823575183	143
3	871	78.415269877081	144
3	871	78.415269877081	145
3	871	78.415269877081	146
3	871	78.415269877081	147
3	892	80.154691275663	148
3	892	80.154691275663	149
3	892	80.154691275663	150
3	892	80.154691275663	151
3	925	83.401961344428	152
3	925	83.401961344428	153
3	925	83.401961344428	154
3	925	83.401961344428	155
3	951	87.421557546318	156
3	951	87.421557546318	157
3	951	87.421557546318	158
3	951	87.421557546318	159
3	977	94.516826937442	160
3	977	94.516826937442	161
3	977	94.516826937442	162
3	977	94.516826937442	163
3	993	96.245338250838	164
3	993	96.245338250838	165
3	993	96.245338250838	166
3	993	96.245338250838	167
3	1015	97.535455761801	168
3	1015	97.535455761801	169
3	1015	97.535455761801	170
3	1015	97.535455761801	171
3	1038	99.432323128508	172
3	1038	99.432323128508	173
3	1038	99.432323128508	174
3	1038	99.432323128508	175
3	1065	101.151195460547	176
3	1065	101.151195460547	177
3	1065	101.151195460547	178
3	1065	101.151195460547	179
3	1084	102.294727948954	180
3	1084	102.294727948954	181
3	1084	102.294727948954	182
3	1084	102.294727948954	183
3	1117	104.515920996166	184
3	1117	104.515920996166	185
3	1117	104.515920996166	186
3	1117	104.515920996166	187
3	1136	105.946404310055	188
3	1136	105.946404310055	189
3	1136	105.946404310055	190
3	1136	105.946404310055	191
3	1157	106.941750340279	192
3	1157	106.941750340279	193
3	1157	106.941750340279	194
3	1157	106.941750340279	195
3	1179	108.948303870345	196
3	1179	108.948303870345	197
3	1179	108.948303870345	198
3	1179	108.948303870345	199
3	1209	110.614766618371	200
3	1209	110.614766618371	201
3	1209	110.614766618371	202
3	1209	110.614766618371	203
3	1225	111.938490987272	204
3	1225	111.938490987272	205
3	1225	111.938490987272	206
3	1225	111.938490987272	207
3	1277	117.869601418568	208
3	1277	117.869601418568	209
3	1277	117.869601418568	210
3	1277	117.869601418568	211
3	1309	122.211883750817	212
3	1309	122.211883750817	213
3	1309	122.211883750817	214
3	1309	122.211883750817	215
3	1330	125.859948682121	216
3	1330	125.859948682121	217
3	1330	125.859948682121	218
3	1330	125.859948682121	219
3	1360	127.290429474189	220
3	1360	127.290429474189	221
3	1360	127.290429474189	222
3	1360	127.290429474189	223
3	1377	128.815742299232	224
3	1377	128.815742299232	225
3	1377	128.815742299232	226
3	1377	128.815742299232	227
3	1403	130.679214813348	228
3	1403	130.679214813348	229
3	1403	130.679214813348	230
3	1403	130.679214813348	231
3	1422	131.859754059886	232
3	1422	131.859754059886	233
3	1422	131.859754059886	234
3	1422	131.859754059886	235
3	1451	134.796475426409	236
3	1451	134.796475426409	237
3	1451	134.796475426409	238
3	1451	134.796475426409	239
3	1472	137.836652231846	240
3	1472	137.836652231846	241
3	1472	137.836652231846	242
3	1472	137.836652231846	243
3	1489	138.866884211947	244
3	1489	138.866884211947	245
3	1489	138.866884211947	246
3	1489	138.866884211947	247
3	1509	140.282307743078	248
3	1509	140.282307743078	249
3	1509	140.282307743078	250
3	1509	140.282307743078	251
3	1541	146.231468312748	252
3	1541	146.231468312748	253
3	1541	146.231468312748	254
3	1541	146.231468312748	255
3	1568	148.22944903492	256
3	1568	148.22944903492	257
3	1568	148.22944903492	258
3	1568	148.22944903492	259
3	1587	149.880196699286	260
3	1587	149.880196699286	261
3	1587	149.880196699286	262
3	1587	149.880196699286	263
3	1611	151.226675033525	264
3	1611	151.226675033525	265
3	1611	151.226675033525	266
3	1611	151.226675033525	267
3	1638	152.697624388388	268
3	1638	152.697624388388	269
3	1638	152.697624388388	270
3	1638	152.697624388388	271
3	1659	154.440317806654	272
3	1659	154.440317806654	273
3	1659	154.440317806654	274
3	1659	154.440317806654	275
3	1679	155.679724872434	276
3	1679	155.679724872434	277
3	1679	155.679724872434	278
3	1679	155.679724872434	279
3	1702	157.249015968736	280
3	1702	157.249015968736	281
3	1702	157.249015968736	282
3	1702	157.249015968736	283
3	1730	161.638504355913	284
3	1730	161.638504355913	285
3	1730	161.638504355913	286
3	1730	161.638504355913	287
3	1748	163.206886492605	288
3	1748	163.206886492605	289
3	1748	163.206886492605	290
3	1748	163.206886492605	291
3	1782	164.318302916409	292
3	1782	164.318302916409	293
3	1782	164.318302916409	294
3	1782	164.318302916409	295
3	1798	165.390493062449	296
3	1798	165.390493062449	297
3	1798	165.390493062449	298
3	1798	165.390493062449	299
3	1819	166.419001507952	300
3	1819	166.419001507952	301
3	1819	166.419001507952	302
3	1819	166.419001507952	303
3	1844	171.199263615895	304
3	1844	171.199263615895	305
3	1844	171.199263615895	306
3	1844	171.199263615895	307
3	1864	172.966269269405	308
3	1864	172.966269269405	309
3	1864	172.966269269405	310
3	1864	172.966269269405	311
3	1887	174.602863462615	312
3	1887	174.602863462615	313
3	1887	174.602863462615	314
3	1887	174.602863462615	315
3	1911	177.780383016213	316
3	1911	177.780383016213	317
3	1911	177.780383016213	318
3	1911	177.780383016213	319
3	1937	179.410488160765	320
3	1937	179.410488160765	321
3	1937	179.410488160765	322
3	1937	179.410488160765	323
3	1959	181.750013209866	324
3	1959	181.750013209866	325
3	1959	181.750013209866	326
3	1959	181.750013209866	327
3	1981	183.265255850717	328
3	1981	183.265255850717	329
3	1981	183.265255850717	330
3	1981	183.265255850717	331
3	2003	184.452709869086	332
3	2003	184.452709869086	333
3	2003	184.452709869086	334
3	2003	184.452709869086	335
3	2025	185.548862056264	336
3	2025	185.548862056264	337
3	2025	185.548862056264	338
3	2025	185.548862056264	339
3	2056	186.945113642864	340
3	2056	186.945113642864	341
3	2056	186.945113642864	342
3	2056	186.945113642864	343
3	2078	188.386995154336	344
3	2078	188.386995154336	345
3	2078	188.386995154336	346
3	2078	188.386995154336	347
3	2096	190.88777739101	348
3	2096	190.88777739101	349
3	2096	190.88777739101	350
3	2096	190.88777739101	351
3	2123	195.912104335826	352
3	2123	195.912104335826	353
3	2123	195.912104335826	354
3	2123	195.912104335826	355
3	2152	199.563764104128	356
3	2152	199.563764104128	357
3	2152	199.563764104128	358
3	2152	199.563764104128	359
3	2177	204.710681814131	360
3	2177	204.710681814131	361
3	2177	204.710681814131	362
3	2177	204.710681814131	363
3	2197	206.645115774989	364
3	2197	206.645115774989	365
3	2197	206.645115774989	366
3	2197	206.645115774989	367
3	2223	207.870415406032	368
3	2223	207.870415406032	369
3	2223	207.870415406032	370
3	2223	207.870415406032	371
3	2251	209.887526840497	372
3	2251	209.887526840497	373
3	2251	209.887526840497	374
3	2251	209.887526840497	375
3	2268	212.767541090645	376
3	2268	212.767541090645	377
3	2268	212.767541090645	378
3	2268	212.767541090645	379
3	2288	214.358598708236	380
3	2288	214.358598708236	381
3	2288	214.358598708236	382
3	2288	214.358598708236	383
3	2310	215.49987186782	384
3	2310	215.49987186782	385
3	2310	215.49987186782	386
3	2310	215.49987186782	387
3	2334	217.092703194574	388
3	2334	217.092703194574	389
3	2334	217.092703194574	390
3	2334	217.092703194574	391
3	2357	218.626971834107	392
3	2357	218.626971834107	393
3	2357	218.626971834107	394
3	2357	218.626971834107	395
3	2381	221.453061141281	396
3	2381	221.453061141281	397
3	2381	221.453061141281	398
3	2381	221.453061141281	399
3	2404	222.949093744716	400
3	2404	222.949093744716	401
3	2404	222.949093744716	402
3	2404	222.949093744716	403
3	2427	224.946258852826	404
3	2427	224.946258852826	405
3	2427	224.946258852826	406
3	2427	224.946258852826	407
3	2454	229.148739838649	408
3	2454	229.148739838649	409
3	2454	229.148739838649	410
3	2454	229.148739838649	411
3	2478	230.462508465765	412
3	2478	230.462508465765	413
3	2478	230.462508465765	414
3	2478	230.462508465765	415
3	2499	232.371042314269	416
3	2499	232.371042314269	417
3	2499	232.371042314269	418
3	2499	232.371042314269	419
3	2522	235.375515330536	420
3	2522	235.375515330536	421
3	2522	235.375515330536	422
3	2522	235.375515330536	423
3	2552	237.225577414114	424
3	2552	237.225577414114	425
3	2552	237.225577414114	426
3	2552	237.225577414114	427
4	15	1.342722102661	0
4	15	1.342722102661	1
4	15	1.342722102661	2
4	45	3.250637095335	3
4	45	3.250637095335	4
4	45	3.250637095335	5
4	68	4.802972011907	6
4	68	4.802972011907	7
4	68	4.802972011907	8
4	87	6.29624067721	9
4	87	6.29624067721	10
4	87	6.29624067721	11
4	110	8.05024175834	12
4	110	8.05024175834	13
4	110	8.05024175834	14
4	134	9.538900824031	15
4	134	9.538900824031	16
4	134	9.538900824031	17
4	154	11.492479413499	18
4	154	11.492479413499	19
4	154	11.492479413499	20
4	183	13.393780662351	21
4	183	13.393780662351	22
4	183	13.393780662351	23
4	201	16.853959450827	24
4	201	16.853959450827	25
4	201	16.853959450827	26
4	233	19.321769290195	27
4	233	19.321769290195	28
4	233	19.321769290195	29
4	256	21.215073174442	30
4	256	21.215073174442	31
4	256	21.215073174442	32
4	274	22.744574485225	33
4	274	22.744574485225	34
4	274	22.744574485225	35
4	321	25.096931689838	36
4	321	25.096931689838	37
4	321	25.096931689838	38
4	339	26.101694220669	39
4	339	26.101694220669	40
4	339	26.101694220669	41
4	371	30.711260879985	42
4	371	30.711260879985	43
4	371	30.711260879985	44
4	395	35.110740498318	45
4	395	35.110740498318	46
4	395	35.110740498318	47
4	417	36.94035246119	48
4	417	36.94035246119	49
4	417	36.94035246119	50
4	463	39.880860333403	51
4	463	39.880860333403	52
4	463	39.880860333403	53
4	481	41.581671096238	54
4	481	41.581671096238	55
4	481	41.581671096238	56
4	500	43.198166688703	57
4	500	43.198166688703	58
4	500	43.198166688703	59
4	519	44.363984474142	60
4	519	44.363984474142	61
4	519	44.363984474142	62
4	543	45.911414649561	63
4	543	45.911414649561	64
4	543	45.911414649561	65
4	568	47.368108232233	66
4	568	47.368108232233	67
4	568	47.368108232233	68
4	617	51.814936586166	69
4	617	51.814936586166	70
4	617	51.814936586166	71
4	640	53.712711960271	72
4	640	53.712711960271	73
4	640	53.712711960271	74
4	660	54.726229495132	75
4	660	54.726229495132	76
4	660	54.726229495132	77
4	688	58.450610692778	78
4	688	58.450610692778	79
4	688	58.450610692778	80
4	706	59.63705299857	81
4	706	59.63705299857	82
4	706	59.63705299857	83
4	729	60.950246862403	84
4	729	60.950246862403	85
4	729	60.950246862403	86
4	758	65.843851673431	87
4	758	65.843851673431	88
4	758	65.843851673431	89
4	776	68.150370978138	90
4	776	68.150370978138	91
4	776	68.150370978138	92
4	806	71.118142926658	93
4	806	71.118142926658	94
4	806	71.118142926658	95
4	827	75.855887622724	96
4	827	75.855887622724	97
4	827	75.855887622724	98
4	855	77.406585264443	99
4	855	77.406585264443	100
4	855	77.406585264443	101
4	881	78.434358013972	102
4	881	78.434358013972	103
4	881	78.434358013972	104
4	899	80.166825709915	105
4	899	80.166825709915	106
4	899	80.166825709915	107
4	924	83.397413235464	108
4	924	83.397413235464	109
4	924	83.397413235464	110
4	973	94.503939659832	111
4	973	94.503939659832	112
4	973	94.503939659832	113
4	1004	96.267630476323	114
4	1004	96.267630476323	115
4	1004	96.267630476323	116
4	1021	97.548572365719	117
4	1021	97.548572365719	118
4	1021	97.548572365719	119
4	1045	99.445051266695	120
4	1045	99.445051266695	121
4	1045	99.445051266695	122
4	1067	101.153832555555	123
4	1067	101.153832555555	124
4	1067	101.153832555555	125
4	1093	102.312732727817	126
4	1093	102.312732727817	127
4	1093	102.312732727817	128
4	1116	104.510795593731	129
4	1116	104.510795593731	130
4	1116	104.510795593731	131
4	1137	105.951129219988	132
4	1137	105.951129219988	133
4	1137	105.951129219988	134
4	1167	106.954530550739	135
4	1167	106.954530550739	136
4	1167	106.954530550739	137
4	1190	108.96708824021	138
4	1190	108.96708824021	139
4	1190	108.96708824021	140
4	1205	110.596153246865	141
4	1205	110.596153246865	142
4	1205	110.596153246865	143
4	1232	111.962213781878	144
4	1232	111.962213781878	145
4	1232	111.962213781878	146
4	1254	113.848549756166	147
4	1254	113.848549756166	148
4	1254	113.848549756166	149
4	1287	117.892694776076	150
4	1287	117.892694776076	151
4	1287	117.892694776076	152
4	1342	125.874461029312	153
4	1342	125.874461029312	154
4	1342	125.874461029312	155
4	1365	127.34487295873	156
4	1365	127.34487295873	157
4	1365	127.34487295873	158
4	1388	128.842076142803	159
4	1388	128.842076142803	160
4	1388	128.842076142803	161
4	1404	130.683414610764	162
4	1404	130.683414610764	163
4	1404	130.683414610764	164
4	1431	131.87287988186	165
4	1431	131.87287988186	166
4	1431	131.87287988186	167
4	1488	138.863790123089	168
4	1488	138.863790123089	169
4	1488	138.863790123089	170
4	1519	140.294572655976	171
4	1519	140.294572655976	172
4	1519	140.294572655976	173
4	1553	146.249054747815	174
4	1553	146.249054747815	175
4	1553	146.249054747815	176
4	1572	148.233252558989	177
4	1572	148.233252558989	178
4	1572	148.233252558989	179
4	1593	149.893460273043	180
4	1593	149.893460273043	181
4	1593	149.893460273043	182
4	1616	151.234632932514	183
4	1616	151.234632932514	184
4	1616	151.234632932514	185
4	1637	152.693607462503	186
4	1637	152.693607462503	187
4	1637	152.693607462503	188
4	1668	154.47162891947	189
4	1668	154.47162891947	190
4	1668	154.47162891947	191
4	1685	155.691269387503	192
4	1685	155.691269387503	193
4	1685	155.691269387503	194
4	1714	157.280329277347	195
4	1714	157.280329277347	196
4	1714	157.280329277347	197
4	1755	163.217590482921	198
4	1755	163.217590482921	199
4	1755	163.217590482921	200
4	1776	164.28164252605	201
4	1776	164.28164252605	202
4	1776	164.28164252605	203
4	1806	165.417949925433	204
4	1806	165.417949925433	205
4	1806	165.417949925433	206
4	1829	166.440550341532	207
4	1829	166.440550341532	208
4	1829	166.440550341532	209
4	1875	172.996624726173	210
4	1875	172.996624726173	211
4	1875	172.996624726173	212
4	1898	174.637436824262	213
4	1898	174.637436824262	214
4	1898	174.637436824262	215
4	1923	177.808860582696	216
4	1923	177.808860582696	217
4	1923	177.808860582696	218
4	1943	179.432187079317	219
4	1943	179.432187079317	220
4	1943	179.432187079317	221
4	1968	181.761998694026	222
4	1968	181.761998694026	223
4	1968	181.761998694026	224
4	1991	183.308445111642	225
4	1991	183.308445111642	226
4	1991	183.308445111642	227
4	2011	184.470087997301	228
4	2011	184.470087997301	229
4	2011	184.470087997301	230
4	2032	185.562183772389	231
4	2032	185.562183772389	232
4	2032	185.562183772389	233
4	2055	186.94320897264	234
4	2055	186.94320897264	235
4	2055	186.94320897264	236
4	2083	188.399057373831	237
4	2083	188.399057373831	238
4	2083	188.399057373831	239
4	2105	190.905064191758	240
4	2105	190.905064191758	241
4	2105	190.905064191758	242
4	2129	195.92236930674	243
4	2129	195.92236930674	244
4	2129	195.92236930674	245
4	2160	199.58622777825	246
4	2160	199.58622777825	247
4	2160	199.58622777825	248
4	2183	204.725775797391	249
4	2183	204.725775797391	250
4	2183	204.725775797391	251
4	2203	206.66215067113	252
4	2203	206.66215067113	253
4	2203	206.66215067113	254
4	2232	207.91449010897	255
4	2232	207.91449010897	256
4	2232	207.91449010897	257
4	2250	209.885105148834	258
4	2250	209.885105148834	259
4	2250	209.885105148834	260
4	2299	214.421479955532	261
4	2299	214.421479955532	262
4	2299	214.421479955532	263
4	2318	215.513572880398	264
4	2318	215.513572880398	265
4	2318	215.513572880398	266
4	2339	217.100852031801	267
4	2339	217.100852031801	268
4	2339	217.100852031801	269
4	2362	218.636761648405	270
4	2362	218.636761648405	271
4	2362	218.636761648405	272
4	2393	221.495937048241	273
4	2393	221.495937048241	274
4	2393	221.495937048241	275
4	2409	222.960965157992	276
4	2409	222.960965157992	277
4	2409	222.960965157992	278
4	2437	224.970259721376	279
4	2437	224.970259721376	280
4	2437	224.970259721376	281
4	2459	229.159572413125	282
4	2459	229.159572413125	283
4	2459	229.159572413125	284
4	2482	230.470058848739	285
4	2482	230.470058848739	286
4	2482	230.470058848739	287
4	2505	232.380752703433	288
4	2505	232.380752703433	289
4	2505	232.380752703433	290
4	2531	235.390274790332	291
4	2531	235.390274790332	292
4	2531	235.390274790332	293
4	2557	237.241274743405	294
4	2557	237.241274743405	295
4	2557	237.241274743405	296
5	20	1.345991911527	0
5	20	1.345991911527	1
5	34	3.236731578982	2
5	34	3.236731578982	3
5	56	4.753870331639	4
5	56	4.753870331639	5
5	79	6.265129404407	6
5	79	6.265129404407	7
5	103	8.038734219567	8
5	103	8.038734219567	9
5	138	9.551529224375	10
5	138	9.551529224375	11
5	149	11.490802677826	12
5	149	11.490802677826	13
5	171	13.364070138401	14
5	171	13.364070138401	15
5	206	16.861993507599	16
5	206	16.861993507599	17
5	227	19.305177184777	18
5	227	19.305177184777	19
5	244	21.194140084814	20
5	244	21.194140084814	21
5	268	22.734364852181	22
5	268	22.734364852181	23
5	290	23.847812971151	24
5	290	23.847812971151	25
5	309	25.044327506693	26
5	309	25.044327506693	27
5	332	26.080986836896	28
5	332	26.080986836896	29
5	360	30.68816951125	30
5	360	30.68816951125	31
5	396	35.116808828171	32
5	396	35.116808828171	33
5	410	36.917967575365	34
5	410	36.917967575365	35
5	436	38.433743526126	36
5	436	38.433743526126	37
5	452	39.854182715122	38
5	452	39.854182715122	39
5	474	41.564649745845	40
5	474	41.564649745845	41
5	492	43.177925369948	42
5	492	43.177925369948	43
5	528	44.397713655809	44
5	528	44.397713655809	45
5	542	45.902584294781	46
5	542	45.902584294781	47
5	561	47.344679335472	48
5	561	47.344679335472	49
5	586	50.334665913846	50
5	586	50.334665913846	51
5	605	51.76361495546	52
5	605	51.76361495546	53
5	628	53.676776645862	54
5	628	53.676776645862	55
5	651	54.694876137629	56
5	651	54.694876137629	57
5	676	58.435409922066	58
5	676	58.435409922066	59
5	699	59.624058748317	60
5	699	59.624058748317	61
5	724	60.94512361168	62
5	724	60.94512361168	63
5	775	68.147349943087	64
5	775	68.147349943087	65
5	805	71.112356450114	66
5	805	71.112356450114	67
5	829	75.857076813865	68
5	829	75.857076813865	69
5	846	77.366542210751	70
5	846	77.366542210751	71
5	869	78.414765865466	72
5	869	78.414765865466	73
5	893	80.157470317737	74
5	893	80.157470317737	75
5	918	83.383026879795	76
5	918	83.383026879795	77
5	944	87.403118388479	78
5	944	87.403118388479	79
5	982	94.541566308223	80
5	982	94.541566308223	81
5	997	96.251329687	82
5	997	96.251329687	83
5	1028	97.559794840941	84
5	1028	97.559794840941	85
5	1044	99.444979260561	86
5	1044	99.444979260561	87
5	1066	101.152440652217	88
5	1066	101.152440652217	89
5	1085	102.297044279231	90
5	1085	102.297044279231	91
5	1109	104.48141967635	92
5	1109	104.48141967635	93
5	1145	105.962304841887	94
5	1145	105.962304841887	95
5	1156	106.939165575397	96
5	1156	106.939165575397	97
5	1178	108.946362746601	98
5	1178	108.946362746601	99
5	1214	110.625308538917	100
5	1214	110.625308538917	101
5	1224	111.933454030302	102
5	1224	111.933454030302	103
5	1248	113.798327654738	104
5	1248	113.798327654738	105
5	1265	115.324288509184	106
5	1265	115.324288509184	107
5	1286	117.891122877805	108
5	1286	117.891122877805	109
5	1315	122.225157341427	110
5	1315	122.225157341427	111
5	1332	125.864367091965	112
5	1332	125.864367091965	113
5	1354	127.274140103676	114
5	1354	127.274140103676	115
5	1378	128.818446163855	116
5	1378	128.818446163855	117
5	1419	131.848743303024	118
5	1419	131.848743303024	119
5	1444	134.772207654125	120
5	1444	134.772207654125	121
5	1465	137.802522159543	122
5	1465	137.802522159543	123
5	1490	138.871992409481	124
5	1490	138.871992409481	125
5	1507	140.273961286667	126
5	1507	140.273961286667	127
5	1542	146.234182164824	128
5	1542	146.234182164824	129
5	1564	148.219441437706	130
5	1564	148.219441437706	131
5	1594	149.896426495385	132
5	1594	149.896426495385	133
5	1615	151.230953299874	134
5	1615	151.230953299874	135
5	1646	152.709450115208	136
5	1646	152.709450115208	137
5	1656	154.426279978562	138
5	1656	154.426279978562	139
5	1684	155.690928594999	140
5	1684	155.690928594999	141
5	1707	157.265774078608	142
5	1707	157.265774078608	143
5	1729	161.636563874792	144
5	1729	161.636563874792	145
5	1750	163.2099980142	146
5	1750	163.2099980142	147
5	1772	164.272304859148	148
5	1772	164.272304859148	149
5	1794	165.370321948551	150
5	1794	165.370321948551	151
5	1817	166.4162314366	152
5	1817	166.4162314366	153
5	1845	171.205292765611	154
5	1845	171.205292765611	155
5	1863	172.963571523879	156
5	1863	172.963571523879	157
5	1886	174.59685288847	158
5	1886	174.59685288847	159
5	1912	177.786503681591	160
5	1912	177.786503681591	161
5	1934	179.382969676856	162
5	1934	179.382969676856	163
5	1979	183.255749743757	164
5	1979	183.255749743757	165
5	2002	184.452143061588	166
5	2002	184.452143061588	167
5	2031	185.558906157275	168
5	2031	185.558906157275	169
5	2049	186.926885805465	170
5	2049	186.926885805465	171
5	2071	188.347790921199	172
5	2071	188.347790921199	173
5	2097	190.890861589547	174
5	2097	190.890861589547	175
5	2136	195.937552993545	176
5	2136	195.937552993545	177
5	2148	199.551908502114	178
5	2148	199.551908502114	179
5	2202	206.660036804103	180
5	2202	206.660036804103	181
5	2220	207.829231612522	182
5	2220	207.829231612522	183
5	2243	209.834003605335	184
5	2243	209.834003605335	185
5	2270	212.77093381266	186
5	2270	212.77093381266	187
5	2292	214.366146629148	188
5	2292	214.366146629148	189
5	2311	215.500055776536	190
5	2311	215.500055776536	191
5	2335	217.094139365559	192
5	2335	217.094139365559	193
5	2358	218.628731252478	194
5	2358	218.628731252478	195
5	2387	221.475618636393	196
5	2387	221.475618636393	197
5	2411	222.962872994336	198
5	2411	222.962872994336	199
5	2436	224.964180854167	200
5	2436	224.964180854167	201
5	2474	230.44118767713	202
5	2474	230.44118767713	203
5	2497	232.363841986777	204
5	2497	232.363841986777	205
5	2535	235.411366268154	206
5	2535	235.411366268154	207
5	2546	237.209460257712	208
5	2546	237.209460257712	209
6	23	1.352722102661	0
6	71	4.812972011907	1
6	91	6.30624067721	2
6	117	8.06024175834	3
6	137	9.548900824031	4
6	160	11.502479413499	5
6	186	13.403780662351	6
6	236	19.331769290195	7
6	259	21.225073174442	8
6	324	25.106931689838	9
6	343	26.111694220669	10
6	374	30.721260879985	11
6	399	35.120740498318	12
6	484	41.591671096238	13
6	503	43.208166688703	14
6	522	44.373984474142	15
6	620	51.824936586166	16
6	666	54.736229495132	17
6	691	58.460610692778	18
6	709	59.64705299857	19
6	737	60.960246862403	20
6	761	65.853851673431	21
6	781	68.160370978138	22
6	811	71.128142926658	23
6	832	75.865887622724	24
6	861	77.416585264443	25
6	884	78.444358013972	26
6	907	80.176825709915	27
6	976	94.513939659832	28
6	1007	96.277630476323	29
6	1053	99.455051266695	30
6	1099	102.322732727817	31
6	1144	105.961129219988	32
6	1170	106.964530550739	33
6	1193	108.97708824021	34
6	1208	110.606153246865	35
6	1368	127.35487295873	36
6	1411	130.693414610764	37
6	1434	131.88287988186	38
6	1493	138.873790123089	39
6	1522	140.304572655976	40
6	1556	146.259054747815	41
6	1579	148.243252558989	42
6	1600	149.903460273043	43
6	1625	151.244632932514	44
6	1641	152.703607462503	45
6	1671	154.48162891947	46
6	1690	155.701269387503	47
6	1763	163.227590482921	48
6	1781	164.29164252605	49
6	1809	165.427949925433	50
6	1832	166.450550341532	51
6	1878	173.006624726173	52
6	1901	174.647436824262	53
6	1926	177.818860582696	54
6	1971	181.771998694026	55
6	1994	183.318445111642	56
6	2017	184.480087997301	57
6	2040	185.572183772389	58
6	2059	186.95320897264	59
6	2086	188.409057373831	60
6	2111	190.915064191758	61
6	2135	195.93236930674	62
6	2163	199.59622777825	63
6	2189	204.735775797391	64
6	2235	207.92449010897	65
6	2348	217.110852031801	66
6	2414	222.970965157992	67
6	2442	224.980259721376	68
6	2462	229.169572413125	69
6	2489	230.480058848739	70
6	2512	232.390752703433	71
6	2534	235.400274790332	72
6	2560	237.251274743405	73

