version 2
run General-3-20231008-07:01:12-16668
attr configname General
attr datetime 20231008-07:01:12
attr experiment General
attr inifile omnetpp.ini
attr iterationvars ""
attr iterationvarsf ""
attr measurement ""
attr network Network2
attr processid 16668
attr repetition 3
attr replication #3
attr resultdir results
attr runnumber 3
attr seedset 3
param Network2.node[*].transmissionTime "uniform(1s, 2s)"
param Network2.node[*].delayTime "uniform(0.01s, 0.2s)"
param Network2.node[*].processingTime exponential(0.01s)
param Network2.node[*].lossProbability 0.25

vector 0 Network2.node[0] txVector ETV
vector 1 Network2.node[1] txVector ETV
vector 2 Network2.node[6] txVector ETV
vector 3 Network2.node[3] txVector ETV
vector 4 Network2.node[4] txVector ETV
vector 5 Network2.node[2] txVector ETV
vector 6 Network2.node[5] rxVector ETV
0	1	0.114651601831	0
0	15	1.185376482154	1
0	17	2.433264783886	2
0	40	3.526816279464	3
0	63	4.810341365705	4
0	86	6.135647542844	5
0	88	7.427440316253	6
0	111	8.885126714431	7
0	134	10.2474671731	8
0	144	11.490142594627	9
0	167	13.214081731229	10
0	190	14.879706338816	11
0	210	16.793681600899	12
0	233	18.33727593075	13
0	235	19.376194028486	14
0	258	21.376169492327	15
0	260	22.433900980115	16
0	283	23.516771994833	17
0	306	25.333807355793	18
0	329	26.487547562294	19
0	352	27.72598386004	20
0	375	29.562895994004	21
0	398	30.785272313584	22
0	408	32.231082492112	23
0	431	33.414854808082	24
0	433	34.445784004475	25
0	456	35.677882393892	26
0	479	37.117303921445	27
0	489	38.886437612888	28
0	491	39.987015325646	29
0	514	41.488938669046	30
0	537	43.317370594084	31
0	539	44.370345614455	32
0	562	46.186614863179	33
0	564	48.087325736252	34
0	566	49.75611331577	35
0	589	51.544945657324	36
0	591	53.387186884718	37
0	614	55.020147417976	38
0	634	56.888702049923	39
0	636	58.105339318353	40
0	659	59.621583799205	41
0	661	60.861407558273	42
0	684	61.87126438257	43
0	707	63.21766608169	44
0	730	64.560345347344	45
0	753	66.179672617537	46
0	776	67.703157152121	47
0	799	69.419039126325	48
0	822	70.931462718246	49
0	845	72.480699583029	50
0	847	73.578004559574	51
0	849	75.501871281608	52
0	872	76.541665434676	53
0	874	77.989342846048	54
0	897	79.494939808573	55
0	915	81.360928375812	56
0	925	83.042553558552	57
0	948	84.901585629748	58
0	971	86.740942909222	59
0	973	88.196873234425	60
0	975	89.593772899898	61
0	977	90.917606992254	62
0	1000	92.392563837653	63
0	1023	93.498306874957	64
0	1039	94.936839733811	65
0	1041	96.374874569781	66
0	1064	97.871942098791	67
0	1087	99.344229218157	68
0	1106	100.614078442173	69
0	1116	101.99019457151	70
0	1139	103.684719768658	71
0	1162	104.921607128883	72
0	1185	106.187798620507	73
0	1187	107.624829838125	74
0	1210	109.151490049975	75
0	1233	110.942651298435	76
0	1253	112.010939627027	77
0	1276	113.904081996836	78
0	1296	115.755446076233	79
0	1319	117.611290553657	80
0	1342	119.563674580145	81
0	1365	121.358774009931	82
0	1372	123.323324960263	83
0	1395	125.040720260076	84
0	1418	126.885104986679	85
0	1441	127.898941072243	86
0	1464	129.159944936008	87
0	1483	130.326117968027	88
0	1506	131.811505386679	89
0	1529	133.522189726661	90
0	1552	135.397263170992	91
0	1554	137.028892612624	92
0	1556	138.638795633641	93
0	1579	139.803483288343	94
0	1602	141.120189161346	95
0	1625	142.314213657592	96
0	1627	143.817780233061	97
0	1650	145.714642766936	98
0	1673	147.00292248682	99
0	1696	148.863910010391	100
0	1716	150.630526522714	101
0	1718	152.593743411665	102
0	1741	154.553157061878	103
0	1764	155.761484632575	104
0	1787	157.241304843062	105
0	1806	159.055916471481	106
0	1808	160.630909249261	107
0	1831	162.624310858855	108
0	1833	163.711751046665	109
0	1856	165.498010808909	110
0	1879	167.152717862352	111
0	1902	169.133565573328	112
0	1925	170.423817601361	113
0	1948	171.813781846621	114
0	1971	173.005817311191	115
0	1989	174.888692766734	116
0	1991	175.923880348987	117
0	2014	177.500308891133	118
0	2037	179.438303924239	119
0	2039	180.949572573024	120
0	2062	182.770107004632	121
0	2085	184.139462231266	122
0	2108	186.084748261681	123
0	2128	187.485446302992	124
0	2130	189.140523786963	125
0	2132	190.441301981992	126
0	2155	192.24513317326	127
0	2178	194.039251822121	128
0	2201	195.277016413006	129
0	2203	196.476730204494	130
0	2226	198.246033942168	131
0	2249	199.385747138252	132
0	2272	201.36312350545	133
0	2295	202.874125924734	134
0	2318	204.60092043465	135
0	2337	205.889875642331	136
0	2339	207.54590925768	137
0	2362	208.66368390697	138
0	2364	209.679639210533	139
0	2366	211.550801372463	140
0	2389	212.945048257085	141
0	2391	214.140561534632	142
0	2414	215.889907517545	143
0	2437	216.910051972913	144
0	2456	218.334254992037	145
0	2479	220.318301688955	146
0	2502	222.131057444569	147
0	2525	223.654132140642	148
0	2527	224.898987591108	149
0	2550	226.32919305454	150
0	2573	227.456030882969	151
0	2596	228.64194315656	152
0	2619	230.038558368878	153
0	2642	231.398546520927	154
0	2665	232.962563760885	155
0	2667	234.042585153672	156
0	2687	235.476156867649	157
0	2710	236.57618720348	158
0	2733	237.964635335915	159
0	2735	239.749927654937	160
1	3	0.14297423212	0
1	3	0.14297423212	1
1	3	0.14297423212	2
1	3	0.14297423212	3
1	19	2.455133438848	4
1	19	2.455133438848	5
1	19	2.455133438848	6
1	19	2.455133438848	7
1	42	3.54862984828	8
1	42	3.54862984828	9
1	42	3.54862984828	10
1	42	3.54862984828	11
1	65	4.836892478073	12
1	65	4.836892478073	13
1	65	4.836892478073	14
1	65	4.836892478073	15
1	90	7.457139654274	16
1	90	7.457139654274	17
1	90	7.457139654274	18
1	90	7.457139654274	19
1	113	8.902385373291	20
1	113	8.902385373291	21
1	113	8.902385373291	22
1	113	8.902385373291	23
1	136	10.293081753277	24
1	136	10.293081753277	25
1	136	10.293081753277	26
1	136	10.293081753277	27
1	146	11.506587852678	28
1	146	11.506587852678	29
1	146	11.506587852678	30
1	146	11.506587852678	31
1	169	13.228080111298	32
1	169	13.228080111298	33
1	169	13.228080111298	34
1	169	13.228080111298	35
1	192	14.89974842495	36
1	192	14.89974842495	37
1	192	14.89974842495	38
1	192	14.89974842495	39
1	212	16.8046224098	40
1	212	16.8046224098	41
1	212	16.8046224098	42
1	212	16.8046224098	43
1	237	19.38931306243	44
1	237	19.38931306243	45
1	237	19.38931306243	46
1	237	19.38931306243	47
1	262	22.476016802622	48
1	262	22.476016802622	49
1	262	22.476016802622	50
1	262	22.476016802622	51
1	285	23.545592466632	52
1	285	23.545592466632	53
1	285	23.545592466632	54
1	285	23.545592466632	55
1	308	25.365020395646	56
1	308	25.365020395646	57
1	308	25.365020395646	58
1	308	25.365020395646	59
1	331	26.509509780317	60
1	331	26.509509780317	61
1	331	26.509509780317	62
1	331	26.509509780317	63
1	354	27.743635338695	64
1	354	27.743635338695	65
1	354	27.743635338695	66
1	354	27.743635338695	67
1	377	29.577308145255	68
1	377	29.577308145255	69
1	377	29.577308145255	70
1	377	29.577308145255	71
1	400	30.795982440424	72
1	400	30.795982440424	73
1	400	30.795982440424	74
1	400	30.795982440424	75
1	410	32.246815835717	76
1	410	32.246815835717	77
1	410	32.246815835717	78
1	410	32.246815835717	79
1	435	34.455912379886	80
1	435	34.455912379886	81
1	435	34.455912379886	82
1	435	34.455912379886	83
1	458	35.692534231483	84
1	458	35.692534231483	85
1	458	35.692534231483	86
1	458	35.692534231483	87
1	481	37.127557358836	88
1	481	37.127557358836	89
1	481	37.127557358836	90
1	481	37.127557358836	91
1	493	40.013159640941	92
1	493	40.013159640941	93
1	493	40.013159640941	94
1	493	40.013159640941	95
1	516	41.499368469762	96
1	516	41.499368469762	97
1	516	41.499368469762	98
1	516	41.499368469762	99
1	541	44.397674873979	100
1	541	44.397674873979	101
1	541	44.397674873979	102
1	541	44.397674873979	103
1	568	49.788721945439	104
1	568	49.788721945439	105
1	568	49.788721945439	106
1	568	49.788721945439	107
1	593	53.412850225892	108
1	593	53.412850225892	109
1	593	53.412850225892	110
1	593	53.412850225892	111
1	616	55.036162429971	112
1	616	55.036162429971	113
1	616	55.036162429971	114
1	616	55.036162429971	115
1	638	58.123783863108	116
1	638	58.123783863108	117
1	638	58.123783863108	118
1	638	58.123783863108	119
1	663	60.872274823076	120
1	663	60.872274823076	121
1	663	60.872274823076	122
1	663	60.872274823076	123
1	686	61.889808568144	124
1	686	61.889808568144	125
1	686	61.889808568144	126
1	686	61.889808568144	127
1	709	63.227726836297	128
1	709	63.227726836297	129
1	709	63.227726836297	130
1	709	63.227726836297	131
1	732	64.572615704237	132
1	732	64.572615704237	133
1	732	64.572615704237	134
1	732	64.572615704237	135
1	755	66.203143087491	136
1	755	66.203143087491	137
1	755	66.203143087491	138
1	755	66.203143087491	139
1	778	67.718473947295	140
1	778	67.718473947295	141
1	778	67.718473947295	142
1	778	67.718473947295	143
1	801	69.440010773274	144
1	801	69.440010773274	145
1	801	69.440010773274	146
1	801	69.440010773274	147
1	824	70.945102755387	148
1	824	70.945102755387	149
1	824	70.945102755387	150
1	824	70.945102755387	151
1	851	75.53382836804	152
1	851	75.53382836804	153
1	851	75.53382836804	154
1	851	75.53382836804	155
1	876	78.004310458612	156
1	876	78.004310458612	157
1	876	78.004310458612	158
1	876	78.004310458612	159
1	899	79.511536591146	160
1	899	79.511536591146	161
1	899	79.511536591146	162
1	899	79.511536591146	163
1	917	81.381327465376	164
1	917	81.381327465376	165
1	917	81.381327465376	166
1	917	81.381327465376	167
1	927	83.06348166959	168
1	927	83.06348166959	169
1	927	83.06348166959	170
1	927	83.06348166959	171
1	950	84.919928920718	172
1	950	84.919928920718	173
1	950	84.919928920718	174
1	950	84.919928920718	175
1	979	90.947781672732	176
1	979	90.947781672732	177
1	979	90.947781672732	178
1	979	90.947781672732	179
1	1002	92.410163580411	180
1	1002	92.410163580411	181
1	1002	92.410163580411	182
1	1002	92.410163580411	183
1	1025	93.512100121818	184
1	1025	93.512100121818	185
1	1025	93.512100121818	186
1	1025	93.512100121818	187
1	1043	96.412918730145	188
1	1043	96.412918730145	189
1	1043	96.412918730145	190
1	1043	96.412918730145	191
1	1066	97.885445988732	192
1	1066	97.885445988732	193
1	1066	97.885445988732	194
1	1066	97.885445988732	195
1	1089	99.364981474791	196
1	1089	99.364981474791	197
1	1089	99.364981474791	198
1	1089	99.364981474791	199
1	1108	100.640735171553	200
1	1108	100.640735171553	201
1	1108	100.640735171553	202
1	1108	100.640735171553	203
1	1118	102.01107208873	204
1	1118	102.01107208873	205
1	1118	102.01107208873	206
1	1118	102.01107208873	207
1	1141	103.720406221936	208
1	1141	103.720406221936	209
1	1141	103.720406221936	210
1	1141	103.720406221936	211
1	1164	104.93162036295	212
1	1164	104.93162036295	213
1	1164	104.93162036295	214
1	1164	104.93162036295	215
1	1189	107.640814939329	216
1	1189	107.640814939329	217
1	1189	107.640814939329	218
1	1189	107.640814939329	219
1	1212	109.183645937685	220
1	1212	109.183645937685	221
1	1212	109.183645937685	222
1	1212	109.183645937685	223
1	1235	110.966022924668	224
1	1235	110.966022924668	225
1	1235	110.966022924668	226
1	1235	110.966022924668	227
1	1255	112.022599117402	228
1	1255	112.022599117402	229
1	1255	112.022599117402	230
1	1255	112.022599117402	231
1	1278	113.925248421775	232
1	1278	113.925248421775	233
1	1278	113.925248421775	234
1	1278	113.925248421775	235
1	1298	115.771478860912	236
1	1298	115.771478860912	237
1	1298	115.771478860912	238
1	1298	115.771478860912	239
1	1321	117.622515605071	240
1	1321	117.622515605071	241
1	1321	117.622515605071	242
1	1321	117.622515605071	243
1	1344	119.577919642072	244
1	1344	119.577919642072	245
1	1344	119.577919642072	246
1	1344	119.577919642072	247
1	1367	121.377257193824	248
1	1367	121.377257193824	249
1	1367	121.377257193824	250
1	1367	121.377257193824	251
1	1374	123.357343947513	252
1	1374	123.357343947513	253
1	1374	123.357343947513	254
1	1374	123.357343947513	255
1	1397	125.058922112203	256
1	1397	125.058922112203	257
1	1397	125.058922112203	258
1	1397	125.058922112203	259
1	1420	126.902225923396	260
1	1420	126.902225923396	261
1	1420	126.902225923396	262
1	1420	126.902225923396	263
1	1443	127.910265871881	264
1	1443	127.910265871881	265
1	1443	127.910265871881	266
1	1443	127.910265871881	267
1	1466	129.179641908999	268
1	1466	129.179641908999	269
1	1466	129.179641908999	270
1	1466	129.179641908999	271
1	1485	130.339023893286	272
1	1485	130.339023893286	273
1	1485	130.339023893286	274
1	1485	130.339023893286	275
1	1508	131.829221307853	276
1	1508	131.829221307853	277
1	1508	131.829221307853	278
1	1508	131.829221307853	279
1	1531	133.532865332793	280
1	1531	133.532865332793	281
1	1531	133.532865332793	282
1	1531	133.532865332793	283
1	1558	138.66808383588	284
1	1558	138.66808383588	285
1	1558	138.66808383588	286
1	1558	138.66808383588	287
1	1581	139.821910813626	288
1	1581	139.821910813626	289
1	1581	139.821910813626	290
1	1581	139.821910813626	291
1	1604	141.164721426058	292
1	1604	141.164721426058	293
1	1604	141.164721426058	294
1	1604	141.164721426058	295
1	1629	143.832777719756	296
1	1629	143.832777719756	297
1	1629	143.832777719756	298
1	1629	143.832777719756	299
1	1652	145.736232525538	300
1	1652	145.736232525538	301
1	1652	145.736232525538	302
1	1652	145.736232525538	303
1	1675	147.069694110383	304
1	1675	147.069694110383	305
1	1675	147.069694110383	306
1	1675	147.069694110383	307
1	1698	148.881371930201	308
1	1698	148.881371930201	309
1	1698	148.881371930201	310
1	1698	148.881371930201	311
1	1720	152.603841641112	312
1	1720	152.603841641112	313
1	1720	152.603841641112	314
1	1720	152.603841641112	315
1	1743	154.575348483162	316
1	1743	154.575348483162	317
1	1743	154.575348483162	318
1	1743	154.575348483162	319
1	1766	155.773943783615	320
1	1766	155.773943783615	321
1	1766	155.773943783615	322
1	1766	155.773943783615	323
1	1789	157.254284290194	324
1	1789	157.254284290194	325
1	1789	157.254284290194	326
1	1789	157.254284290194	327
1	1810	160.693646332024	328
1	1810	160.693646332024	329
1	1810	160.693646332024	330
1	1810	160.693646332024	331
1	1835	163.723396540068	332
1	1835	163.723396540068	333
1	1835	163.723396540068	334
1	1835	163.723396540068	335
1	1858	165.513926842577	336
1	1858	165.513926842577	337
1	1858	165.513926842577	338
1	1858	165.513926842577	339
1	1881	167.162840141526	340
1	1881	167.162840141526	341
1	1881	167.162840141526	342
1	1881	167.162840141526	343
1	1904	169.155160964888	344
1	1904	169.155160964888	345
1	1904	169.155160964888	346
1	1904	169.155160964888	347
1	1927	170.465592029764	348
1	1927	170.465592029764	349
1	1927	170.465592029764	350
1	1927	170.465592029764	351
1	1950	171.848572650813	352
1	1950	171.848572650813	353
1	1950	171.848572650813	354
1	1950	171.848572650813	355
1	1973	173.020366524808	356
1	1973	173.020366524808	357
1	1973	173.020366524808	358
1	1973	173.020366524808	359
1	1993	175.936792841615	360
1	1993	175.936792841615	361
1	1993	175.936792841615	362
1	1993	175.936792841615	363
1	2016	177.515106474117	364
1	2016	177.515106474117	365
1	2016	177.515106474117	366
1	2016	177.515106474117	367
1	2041	180.972937675877	368
1	2041	180.972937675877	369
1	2041	180.972937675877	370
1	2041	180.972937675877	371
1	2064	182.809873236607	372
1	2064	182.809873236607	373
1	2064	182.809873236607	374
1	2064	182.809873236607	375
1	2087	184.162180949205	376
1	2087	184.162180949205	377
1	2087	184.162180949205	378
1	2087	184.162180949205	379
1	2110	186.098360765799	380
1	2110	186.098360765799	381
1	2110	186.098360765799	382
1	2110	186.098360765799	383
1	2134	190.46291310196	384
1	2134	190.46291310196	385
1	2134	190.46291310196	386
1	2134	190.46291310196	387
1	2157	192.271382684832	388
1	2157	192.271382684832	389
1	2157	192.271382684832	390
1	2157	192.271382684832	391
1	2180	194.050306420612	392
1	2180	194.050306420612	393
1	2180	194.050306420612	394
1	2180	194.050306420612	395
1	2205	196.49435178938	396
1	2205	196.49435178938	397
1	2205	196.49435178938	398
1	2205	196.49435178938	399
1	2228	198.25736046221	400
1	2228	198.25736046221	401
1	2228	198.25736046221	402
1	2228	198.25736046221	403
1	2251	199.408246190125	404
1	2251	199.408246190125	405
1	2251	199.408246190125	406
1	2251	199.408246190125	407
1	2274	201.375542008601	408
1	2274	201.375542008601	409
1	2274	201.375542008601	410
1	2274	201.375542008601	411
1	2297	202.890005219305	412
1	2297	202.890005219305	413
1	2297	202.890005219305	414
1	2297	202.890005219305	415
1	2320	204.615017709118	416
1	2320	204.615017709118	417
1	2320	204.615017709118	418
1	2320	204.615017709118	419
1	2341	207.585273745844	420
1	2341	207.585273745844	421
1	2341	207.585273745844	422
1	2341	207.585273745844	423
1	2368	211.565876638668	424
1	2368	211.565876638668	425
1	2368	211.565876638668	426
1	2368	211.565876638668	427
1	2393	214.200562658084	428
1	2393	214.200562658084	429
1	2393	214.200562658084	430
1	2393	214.200562658084	431
1	2416	215.911900867412	432
1	2416	215.911900867412	433
1	2416	215.911900867412	434
1	2416	215.911900867412	435
1	2439	216.927482180799	436
1	2439	216.927482180799	437
1	2439	216.927482180799	438
1	2439	216.927482180799	439
1	2458	218.351833638908	440
1	2458	218.351833638908	441
1	2458	218.351833638908	442
1	2458	218.351833638908	443
1	2481	220.333414889043	444
1	2481	220.333414889043	445
1	2481	220.333414889043	446
1	2481	220.333414889043	447
1	2504	222.141385439705	448
1	2504	222.141385439705	449
1	2504	222.141385439705	450
1	2504	222.141385439705	451
1	2529	224.922461823604	452
1	2529	224.922461823604	453
1	2529	224.922461823604	454
1	2529	224.922461823604	455
1	2552	226.378924466969	456
1	2552	226.378924466969	457
1	2552	226.378924466969	458
1	2552	226.378924466969	459
1	2575	227.466534030884	460
1	2575	227.466534030884	461
1	2575	227.466534030884	462
1	2575	227.466534030884	463
1	2598	228.698010944106	464
1	2598	228.698010944106	465
1	2598	228.698010944106	466
1	2598	228.698010944106	467
1	2621	230.065238870272	468
1	2621	230.065238870272	469
1	2621	230.065238870272	470
1	2621	230.065238870272	471
1	2644	231.423267688073	472
1	2644	231.423267688073	473
1	2644	231.423267688073	474
1	2644	231.423267688073	475
1	2669	234.062476834275	476
1	2669	234.062476834275	477
1	2669	234.062476834275	478
1	2669	234.062476834275	479
1	2689	235.487204000081	480
1	2689	235.487204000081	481
1	2689	235.487204000081	482
1	2689	235.487204000081	483
1	2712	236.591017771167	484
1	2712	236.591017771167	485
1	2712	236.591017771167	486
1	2712	236.591017771167	487
1	2737	239.768600405102	488
1	2737	239.768600405102	489
1	2737	239.768600405102	490
1	2737	239.768600405102	491
2	8	0.158720088868	0
2	8	0.158720088868	1
2	24	2.467561507639	2
2	24	2.467561507639	3
2	48	3.566496715846	4
2	48	3.566496715846	5
2	72	4.857488631529	6
2	72	4.857488631529	7
2	95	7.471825696014	8
2	95	7.471825696014	9
2	118	8.917063036531	10
2	118	8.917063036531	11
2	141	10.309668163576	12
2	141	10.309668163576	13
2	151	11.51734114749	14
2	151	11.51734114749	15
2	184	13.26421556266	16
2	184	13.26421556266	17
2	218	16.817753192618	18
2	218	16.817753192618	19
2	243	19.409843414249	20
2	243	19.409843414249	21
2	272	22.515124193709	22
2	272	22.515124193709	23
2	291	23.563824712475	24
2	291	23.563824712475	25
2	323	25.436269897333	26
2	323	25.436269897333	27
2	336	26.521942598393	28
2	336	26.521942598393	29
2	365	27.782780543749	30
2	365	27.782780543749	31
2	392	29.625453666324	32
2	392	29.625453666324	33
2	405	30.811434307989	34
2	405	30.811434307989	35
2	415	32.260288097445	36
2	415	32.260288097445	37
2	441	34.467685967105	38
2	441	34.467685967105	39
2	463	35.705118220527	40
2	463	35.705118220527	41
2	486	37.142957618798	42
2	486	37.142957618798	43
2	498	40.034880383366	44
2	498	40.034880383366	45
2	525	41.521934440289	46
2	525	41.521934440289	47
2	559	44.459291031343	48
2	559	44.459291031343	49
2	582	49.834872819602	50
2	582	49.834872819602	51
2	599	53.43276150429	52
2	599	53.43276150429	53
2	648	58.15519142922	54
2	648	58.15519142922	55
2	674	60.895776892128	56
2	674	60.895776892128	57
2	691	61.905245378975	58
2	691	61.905245378975	59
2	723	63.30510332655	60
2	723	63.30510332655	61
2	738	64.584468182251	62
2	738	64.584468182251	63
2	770	66.236709794629	64
2	770	66.236709794629	65
2	792	67.740923785475	66
2	792	67.740923785475	67
2	806	69.451687039316	68
2	806	69.451687039316	69
2	831	70.964181562475	70
2	831	70.964181562475	71
2	869	75.628086552875	72
2	869	75.628086552875	73
2	886	78.033139842254	74
2	886	78.033139842254	75
2	905	79.531635945405	76
2	905	79.531635945405	77
2	922	81.410948148748	78
2	922	81.410948148748	79
2	932	83.0791978095	80
2	932	83.0791978095	81
2	956	84.937208786457	82
2	956	84.937208786457	83
2	984	90.96325270299	84
2	984	90.96325270299	85
2	1007	92.423399827921	86
2	1007	92.423399827921	87
2	1048	96.433696947587	88
2	1048	96.433696947587	89
2	1080	97.9160056291	90
2	1080	97.9160056291	91
2	1103	99.400940782273	92
2	1103	99.400940782273	93
2	1113	100.654574636239	94
2	1113	100.654574636239	95
2	1125	102.023641404587	96
2	1125	102.023641404587	97
2	1156	103.757797422168	98
2	1156	103.757797422168	99
2	1174	104.959817844928	100
2	1174	104.959817844928	101
2	1194	107.657839705427	102
2	1194	107.657839705427	103
2	1217	109.199777761934	104
2	1217	109.199777761934	105
2	1261	112.040922400887	106
2	1261	112.040922400887	107
2	1303	115.787250724961	108
2	1303	115.787250724961	109
2	1339	117.685412574823	110
2	1339	117.685412574823	111
2	1358	119.611010025916	112
2	1358	119.611010025916	113
2	1379	123.37107895937	114
2	1379	123.37107895937	115
2	1407	125.079543460552	116
2	1407	125.079543460552	117
2	1425	126.913816540357	118
2	1425	126.913816540357	119
2	1448	127.921079483277	120
2	1448	127.921079483277	121
2	1476	129.217414758778	122
2	1476	129.217414758778	123
2	1498	130.372509437663	124
2	1498	130.372509437663	125
2	1526	131.911768485195	126
2	1526	131.911768485195	127
2	1542	133.561456841765	128
2	1542	133.561456841765	129
2	1563	138.695257714523	130
2	1563	138.695257714523	131
2	1587	139.834571059225	132
2	1587	139.834571059225	133
2	1622	141.223470972257	134
2	1622	141.223470972257	135
2	1644	143.864959040603	136
2	1644	143.864959040603	137
2	1657	145.752424828496	138
2	1657	145.752424828496	139
2	1681	147.089995191088	140
2	1681	147.089995191088	141
2	1734	152.652193108041	142
2	1734	152.652193108041	143
2	1758	154.602523124665	144
2	1758	154.602523124665	145
2	1771	155.788050356095	146
2	1771	155.788050356095	147
2	1799	157.290017261601	148
2	1799	157.290017261601	149
2	1815	160.704430963825	150
2	1815	160.704430963825	151
2	1840	163.734379053028	152
2	1840	163.734379053028	153
2	1864	165.525655277437	154
2	1864	165.525655277437	155
2	1886	167.180163626358	156
2	1886	167.180163626358	157
2	1910	169.18090867076	158
2	1910	169.18090867076	159
2	1932	170.483048120441	160
2	1932	170.483048120441	161
2	1955	171.860504641603	162
2	1955	171.860504641603	163
2	1979	173.044031379935	164
2	1979	173.044031379935	165
2	1998	175.948124656326	166
2	1998	175.948124656326	167
2	2023	177.532056023046	168
2	2023	177.532056023046	169
2	2046	180.987162151199	170
2	2046	180.987162151199	171
2	2070	182.823295915408	172
2	2070	182.823295915408	173
2	2101	184.209950107582	174
2	2101	184.209950107582	175
2	2141	190.481022223225	176
2	2141	190.481022223225	177
2	2167	192.294832224995	178
2	2167	192.294832224995	179
2	2186	194.073760750758	180
2	2186	194.073760750758	181
2	2210	196.513023121622	182
2	2210	196.513023121622	183
2	2246	198.361241842736	184
2	2246	198.361241842736	185
2	2256	199.418936291608	186
2	2256	199.418936291608	187
2	2280	201.394919448981	188
2	2280	201.394919448981	189
2	2303	202.906877855093	190
2	2303	202.906877855093	191
2	2326	204.633859217952	192
2	2326	204.633859217952	193
2	2347	207.608258350358	194
2	2347	207.608258350358	195
2	2378	211.596285285422	196
2	2378	211.596285285422	197
2	2400	214.220160425569	198
2	2400	214.220160425569	199
2	2423	215.940352179365	200
2	2423	215.940352179365	201
2	2444	216.938733085815	202
2	2444	216.938733085815	203
2	2472	218.380298582452	204
2	2472	218.380298582452	205
2	2486	220.350942627112	206
2	2486	220.350942627112	207
2	2511	222.158417615983	208
2	2511	222.158417615983	209
2	2535	224.938821205817	210
2	2535	224.938821205817	211
2	2558	226.398700307131	212
2	2558	226.398700307131	213
2	2587	227.502059072823	214
2	2587	227.502059072823	215
2	2603	228.708721524234	216
2	2603	228.708721524234	217
2	2626	230.087134086491	218
2	2626	230.087134086491	219
2	2650	231.444592259496	220
2	2650	231.444592259496	221
2	2694	235.498986742669	222
2	2694	235.498986742669	223
2	2717	236.612952329692	224
2	2717	236.612952329692	225
2	2755	239.826000330738	226
2	2755	239.826000330738	227
3	9	0.161397929952	0
3	9	0.161397929952	1
3	9	0.161397929952	2
3	25	2.47116965401	3
3	25	2.47116965401	4
3	25	2.47116965401	5
3	53	3.574354328846	6
3	53	3.574354328846	7
3	53	3.574354328846	8
3	70	4.847859977356	9
3	70	4.847859977356	10
3	70	4.847859977356	11
3	98	7.483811794779	12
3	98	7.483811794779	13
3	98	7.483811794779	14
3	119	8.924070799817	15
3	119	8.924070799817	16
3	119	8.924070799817	17
3	160	11.53029125367	18
3	160	11.53029125367	19
3	160	11.53029125367	20
3	174	13.241143823214	21
3	174	13.241143823214	22
3	174	13.241143823214	23
3	197	14.917631416249	24
3	197	14.917631416249	25
3	197	14.917631416249	26
3	219	16.818166425868	27
3	219	16.818166425868	28
3	219	16.818166425868	29
3	248	19.412432656979	30
3	248	19.412432656979	31
3	248	19.412432656979	32
3	279	22.549689294889	33
3	279	22.549689294889	34
3	279	22.549689294889	35
3	290	23.559269590508	36
3	290	23.559269590508	37
3	290	23.559269590508	38
3	313	25.38478620823	39
3	313	25.38478620823	40
3	313	25.38478620823	41
3	344	26.560672484375	42
3	344	26.560672484375	43
3	344	26.560672484375	44
3	371	27.798543527898	45
3	371	27.798543527898	46
3	371	27.798543527898	47
3	382	29.589007282905	48
3	382	29.589007282905	49
3	382	29.589007282905	50
3	423	32.295485020006	51
3	423	32.295485020006	52
3	423	32.295485020006	53
3	442	34.47210295197	54
3	442	34.47210295197	55
3	442	34.47210295197	56
3	475	35.755013777053	57
3	475	35.755013777053	58
3	475	35.755013777053	59
3	499	40.04141715235	60
3	499	40.04141715235	61
3	499	40.04141715235	62
3	521	41.510486073708	63
3	521	41.510486073708	64
3	521	41.510486073708	65
3	546	44.409744512928	66
3	546	44.409744512928	67
3	546	44.409744512928	68
3	583	49.835588202746	69
3	583	49.835588202746	70
3	583	49.835588202746	71
3	598	53.42603209849	72
3	598	53.42603209849	73
3	598	53.42603209849	74
3	621	55.052137871774	75
3	621	55.052137871774	76
3	621	55.052137871774	77
3	650	58.165024783712	78
3	650	58.165024783712	79
3	650	58.165024783712	80
3	669	60.885881937219	81
3	669	60.885881937219	82
3	669	60.885881937219	83
3	692	61.907870222789	84
3	692	61.907870222789	85
3	692	61.907870222789	86
3	714	63.268837004647	87
3	714	63.268837004647	88
3	714	63.268837004647	89
3	737	64.583243117961	90
3	737	64.583243117961	91
3	737	64.583243117961	92
3	760	66.214797298397	93
3	760	66.214797298397	94
3	760	66.214797298397	95
3	783	67.729770448701	96
3	783	67.729770448701	97
3	783	67.729770448701	98
3	807	69.452963955644	99
3	807	69.452963955644	100
3	807	69.452963955644	101
3	830	70.957045928853	102
3	830	70.957045928853	103
3	830	70.957045928853	104
3	856	75.544820806084	105
3	856	75.544820806084	106
3	856	75.544820806084	107
3	890	78.045133830148	108
3	890	78.045133830148	109
3	890	78.045133830148	110
3	904	79.525054821623	111
3	904	79.525054821623	112
3	904	79.525054821623	113
3	940	83.147825378776	114
3	940	83.147825378776	115
3	940	83.147825378776	116
3	963	84.953953145195	117
3	963	84.953953145195	118
3	963	84.953953145195	119
3	985	90.964463597478	120
3	985	90.964463597478	121
3	985	90.964463597478	122
3	1010	92.43509407847	123
3	1010	92.43509407847	124
3	1010	92.43509407847	125
3	1031	93.534309771701	126
3	1031	93.534309771701	127
3	1031	93.534309771701	128
3	1050	96.437298920181	129
3	1050	96.437298920181	130
3	1050	96.437298920181	131
3	1072	97.904732605459	132
3	1072	97.904732605459	133
3	1072	97.904732605459	134
3	1094	99.376526190289	135
3	1094	99.376526190289	136
3	1094	99.376526190289	137
3	1123	102.021290483415	138
3	1123	102.021290483415	139
3	1123	102.021290483415	140
3	1151	103.747786301632	141
3	1151	103.747786301632	142
3	1151	103.747786301632	143
3	1176	104.968616912022	144
3	1176	104.968616912022	145
3	1176	104.968616912022	146
3	1196	107.662784478424	147
3	1196	107.662784478424	148
3	1196	107.662784478424	149
3	1225	109.217431531465	150
3	1225	109.217431531465	151
3	1225	109.217431531465	152
3	1240	110.983500615661	153
3	1240	110.983500615661	154
3	1240	110.983500615661	155
3	1260	112.036993215236	156
3	1260	112.036993215236	157
3	1260	112.036993215236	158
3	1292	114.017038118125	159
3	1292	114.017038118125	160
3	1292	114.017038118125	161
3	1304	115.791758908473	162
3	1304	115.791758908473	163
3	1304	115.791758908473	164
3	1326	117.632560891187	165
3	1326	117.632560891187	166
3	1326	117.632560891187	167
3	1349	119.590900544611	168
3	1349	119.590900544611	169
3	1349	119.590900544611	170
3	1388	123.392902800086	171
3	1388	123.392902800086	172
3	1388	123.392902800086	173
3	1402	125.069428360408	174
3	1402	125.069428360408	175
3	1402	125.069428360408	176
3	1429	126.924155825237	177
3	1429	126.924155825237	178
3	1429	126.924155825237	179
3	1460	127.977832295152	180
3	1460	127.977832295152	181
3	1460	127.977832295152	182
3	1477	129.225340869492	183
3	1477	129.225340869492	184
3	1477	129.225340869492	185
3	1490	130.349523656398	186
3	1490	130.349523656398	187
3	1490	130.349523656398	188
3	1518	131.883268645137	189
3	1518	131.883268645137	190
3	1518	131.883268645137	191
3	1537	133.552882095703	192
3	1537	133.552882095703	193
3	1537	133.552882095703	194
3	1575	138.71782403042	195
3	1575	138.71782403042	196
3	1575	138.71782403042	197
3	1592	139.843623946626	198
3	1592	139.843623946626	199
3	1592	139.843623946626	200
3	1609	141.190115529977	201
3	1609	141.190115529977	202
3	1609	141.190115529977	203
3	1635	143.851946930456	204
3	1635	143.851946930456	205
3	1635	143.851946930456	206
3	1658	145.755251368286	207
3	1658	145.755251368286	208
3	1658	145.755251368286	209
3	1692	147.109395820929	210
3	1692	147.109395820929	211
3	1692	147.109395820929	212
3	1703	148.895030467116	213
3	1703	148.895030467116	214
3	1703	148.895030467116	215
3	1725	152.618722123283	216
3	1725	152.618722123283	217
3	1725	152.618722123283	218
3	1748	154.587558047786	219
3	1748	154.587558047786	220
3	1748	154.587558047786	221
3	1773	155.79547457699	222
3	1773	155.79547457699	223
3	1773	155.79547457699	224
3	1800	157.290612447155	225
3	1800	157.290612447155	226
3	1800	157.290612447155	227
3	1816	160.705959715079	228
3	1816	160.705959715079	229
3	1816	160.705959715079	230
3	1848	163.752045576357	231
3	1848	163.752045576357	232
3	1848	163.752045576357	233
3	1863	165.524351181824	234
3	1863	165.524351181824	235
3	1863	165.524351181824	236
3	1898	167.226135035366	237
3	1898	167.226135035366	238
3	1898	167.226135035366	239
3	1909	169.178749141199	240
3	1909	169.178749141199	241
3	1909	169.178749141199	242
3	1941	170.516589179108	243
3	1941	170.516589179108	244
3	1941	170.516589179108	245
3	1956	171.863022512378	246
3	1956	171.863022512378	247
3	1956	171.863022512378	248
3	1978	173.03403703163	249
3	1978	173.03403703163	250
3	1978	173.03403703163	251
3	2010	176.00552254265	252
3	2010	176.00552254265	253
3	2010	176.00552254265	254
3	2022	177.530888662169	255
3	2022	177.530888662169	256
3	2022	177.530888662169	257
3	2047	180.989525870279	258
3	2047	180.989525870279	259
3	2047	180.989525870279	260
3	2069	182.821484466041	261
3	2069	182.821484466041	262
3	2069	182.821484466041	263
3	2092	184.173227057616	264
3	2092	184.173227057616	265
3	2092	184.173227057616	266
3	2116	186.114848033882	267
3	2116	186.114848033882	268
3	2116	186.114848033882	269
3	2139	190.474078707503	270
3	2139	190.474078707503	271
3	2139	190.474078707503	272
3	2162	192.284443385153	273
3	2162	192.284443385153	274
3	2162	192.284443385153	275
3	2185	194.070176193177	276
3	2185	194.070176193177	277
3	2185	194.070176193177	278
3	2218	196.525334207174	279
3	2218	196.525334207174	280
3	2218	196.525334207174	281
3	2233	198.311118870941	282
3	2233	198.311118870941	283
3	2233	198.311118870941	284
3	2265	199.445929044692	285
3	2265	199.445929044692	286
3	2265	199.445929044692	287
3	2287	201.405821101788	288
3	2287	201.405821101788	289
3	2287	201.405821101788	290
3	2302	202.903452903026	291
3	2302	202.903452903026	292
3	2302	202.903452903026	293
3	2333	204.650683353537	294
3	2333	204.650683353537	295
3	2333	204.650683353537	296
3	2354	207.62449808288	297
3	2354	207.62449808288	298
3	2354	207.62449808288	299
3	2373	211.579040066755	300
3	2373	211.579040066755	301
3	2373	211.579040066755	302
3	2398	214.210691910766	303
3	2398	214.210691910766	304
3	2398	214.210691910766	305
3	2421	215.933182892384	306
3	2421	215.933182892384	307
3	2421	215.933182892384	308
3	2448	216.973763410877	309
3	2448	216.973763410877	310
3	2448	216.973763410877	311
3	2463	218.36423346419	312
3	2463	218.36423346419	313
3	2463	218.36423346419	314
3	2487	220.359384559904	315
3	2487	220.359384559904	316
3	2487	220.359384559904	317
3	2509	222.151872993681	318
3	2509	222.151872993681	319
3	2509	222.151872993681	320
3	2534	224.932711960985	321
3	2534	224.932711960985	322
3	2534	224.932711960985	323
3	2569	226.420698059656	324
3	2569	226.420698059656	325
3	2569	226.420698059656	326
3	2586	227.495316645842	327
3	2586	227.495316645842	328
3	2586	227.495316645842	329
3	2611	228.737721190018	330
3	2611	228.737721190018	331
3	2611	228.737721190018	332
3	2627	230.089691587254	333
3	2627	230.089691587254	334
3	2627	230.089691587254	335
3	2649	231.439858834238	336
3	2649	231.439858834238	337
3	2649	231.439858834238	338
3	2674	234.076920755481	339
3	2674	234.076920755481	340
3	2674	234.076920755481	341
3	2702	235.52551430706	342
3	2702	235.52551430706	343
3	2702	235.52551430706	344
3	2725	236.642838987045	345
3	2725	236.642838987045	346
3	2725	236.642838987045	347
3	2742	239.797844170856	348
3	2742	239.797844170856	349
3	2742	239.797844170856	350
4	31	2.481412395314	0
4	31	2.481412395314	1
4	31	2.481412395314	2
4	54	3.575502655382	3
4	54	3.575502655382	4
4	54	3.575502655382	5
4	80	4.862347327744	6
4	80	4.862347327744	7
4	80	4.862347327744	8
4	107	7.498537376442	9
4	107	7.498537376442	10
4	107	7.498537376442	11
4	130	8.942575686135	12
4	130	8.942575686135	13
4	130	8.942575686135	14
4	159	11.529961510822	15
4	159	11.529961510822	16
4	159	11.529961510822	17
4	183	13.26410176226	18
4	183	13.26410176226	19
4	183	13.26410176226	20
4	206	14.972892610233	21
4	206	14.972892610233	22
4	206	14.972892610233	23
4	229	16.833511005323	24
4	229	16.833511005323	25
4	229	16.833511005323	26
4	249	19.4148751659	27
4	249	19.4148751659	28
4	249	19.4148751659	29
4	273	22.519769718749	30
4	273	22.519769718749	31
4	273	22.519769718749	32
4	302	23.59420456245	33
4	302	23.59420456245	34
4	302	23.59420456245	35
4	322	25.429969365206	36
4	322	25.429969365206	37
4	322	25.429969365206	38
4	345	26.567265209524	39
4	345	26.567265209524	40
4	345	26.567265209524	41
4	364	27.773078564478	42
4	364	27.773078564478	43
4	364	27.773078564478	44
4	391	29.616668263125	45
4	391	29.616668263125	46
4	391	29.616668263125	47
4	427	32.314438290269	48
4	427	32.314438290269	49
4	427	32.314438290269	50
4	452	34.492077620096	51
4	452	34.492077620096	52
4	452	34.492077620096	53
4	471	35.732811157271	54
4	471	35.732811157271	55
4	471	35.732811157271	56
4	505	40.06143171148	57
4	505	40.06143171148	58
4	505	40.06143171148	59
4	527	41.530558441713	60
4	527	41.530558441713	61
4	527	41.530558441713	62
4	550	44.432329355449	63
4	550	44.432329355449	64
4	550	44.432329355449	65
4	578	49.8219011316	66
4	578	49.8219011316	67
4	578	49.8219011316	68
4	606	53.446007434773	69
4	606	53.446007434773	70
4	606	53.446007434773	71
4	626	55.063215218715	72
4	626	55.063215218715	73
4	626	55.063215218715	74
4	649	58.164232830712	75
4	649	58.164232830712	76
4	649	58.164232830712	77
4	680	60.909038644011	78
4	680	60.909038644011	79
4	680	60.909038644011	80
4	703	61.931869242003	81
4	703	61.931869242003	82
4	703	61.931869242003	83
4	726	63.339749979542	84
4	726	63.339749979542	85
4	726	63.339749979542	86
4	742	64.593621558894	87
4	742	64.593621558894	88
4	742	64.593621558894	89
4	769	66.234235412508	90
4	769	66.234235412508	91
4	769	66.234235412508	92
4	793	67.748067491579	93
4	793	67.748067491579	94
4	793	67.748067491579	95
4	813	69.467470483106	96
4	813	69.467470483106	97
4	813	69.467470483106	98
4	841	70.977311610129	99
4	841	70.977311610129	100
4	841	70.977311610129	101
4	860	75.566711854582	102
4	860	75.566711854582	103
4	860	75.566711854582	104
4	887	78.042093596521	105
4	887	78.042093596521	106
4	887	78.042093596521	107
4	911	79.550776546175	108
4	911	79.550776546175	109
4	911	79.550776546175	110
4	941	83.151024903557	111
4	941	83.151024903557	112
4	941	83.151024903557	113
4	964	84.956050912182	114
4	964	84.956050912182	115
4	964	84.956050912182	116
4	992	90.982419099779	117
4	992	90.982419099779	118
4	992	90.982419099779	119
4	1019	92.458540226748	120
4	1019	92.458540226748	121
4	1019	92.458540226748	122
4	1060	96.452831522753	123
4	1060	96.452831522753	124
4	1060	96.452831522753	125
4	1083	97.931192283382	126
4	1083	97.931192283382	127
4	1083	97.931192283382	128
4	1129	102.031333120546	129
4	1129	102.031333120546	130
4	1129	102.031333120546	131
4	1152	103.751113687917	132
4	1152	103.751113687917	133
4	1152	103.751113687917	134
4	1175	104.962218265682	135
4	1175	104.962218265682	136
4	1175	104.962218265682	137
4	1206	107.673122614775	138
4	1206	107.673122614775	139
4	1206	107.673122614775	140
4	1229	109.228403065462	141
4	1229	109.228403065462	142
4	1229	109.228403065462	143
4	1245	110.995066615455	144
4	1245	110.995066615455	145
4	1245	110.995066615455	146
4	1266	112.048571704859	147
4	1266	112.048571704859	148
4	1266	112.048571704859	149
4	1288	113.99944362754	150
4	1288	113.99944362754	151
4	1288	113.99944362754	152
4	1310	115.802734748393	153
4	1310	115.802734748393	154
4	1310	115.802734748393	155
4	1330	117.645044737948	156
4	1330	117.645044737948	157
4	1330	117.645044737948	158
4	1359	119.615179452338	159
4	1359	119.615179452338	160
4	1359	119.615179452338	161
4	1387	123.387283514017	162
4	1387	123.387283514017	163
4	1387	123.387283514017	164
4	1414	125.106368414138	165
4	1414	125.106368414138	166
4	1414	125.106368414138	167
4	1437	126.939397288633	168
4	1437	126.939397288633	169
4	1437	126.939397288633	170
4	1456	127.966301734965	171
4	1456	127.966301734965	172
4	1456	127.966301734965	173
4	1494	130.361682105983	174
4	1494	130.361682105983	175
4	1494	130.361682105983	176
4	1519	131.890569150413	177
4	1519	131.890569150413	178
4	1519	131.890569150413	179
4	1546	133.568148708853	180
4	1546	133.568148708853	181
4	1546	133.568148708853	182
4	1571	138.706132571776	183
4	1571	138.706132571776	184
4	1571	138.706132571776	185
4	1598	139.856239105627	186
4	1598	139.856239105627	187
4	1598	139.856239105627	188
4	1613	141.208659096805	189
4	1613	141.208659096805	190
4	1613	141.208659096805	191
4	1640	143.860531881427	192
4	1640	143.860531881427	193
4	1640	143.860531881427	194
4	1665	145.767605034044	195
4	1665	145.767605034044	196
4	1665	145.767605034044	197
4	1686	147.094846033239	198
4	1686	147.094846033239	199
4	1686	147.094846033239	200
4	1712	148.921104430705	201
4	1712	148.921104430705	202
4	1712	148.921104430705	203
4	1735	152.654317912574	204
4	1735	152.654317912574	205
4	1735	152.654317912574	206
4	1753	154.599784390375	207
4	1753	154.599784390375	208
4	1753	154.599784390375	209
4	1780	155.803492227696	210
4	1780	155.803492227696	211
4	1780	155.803492227696	212
4	1823	160.729351469844	213
4	1823	160.729351469844	214
4	1823	160.729351469844	215
4	1852	163.764777775188	216
4	1852	163.764777775188	217
4	1852	163.764777775188	218
4	1870	165.537370926024	219
4	1870	165.537370926024	220
4	1870	165.537370926024	221
4	1894	167.202389946341	222
4	1894	167.202389946341	223
4	1894	167.202389946341	224
4	1921	169.218439451385	225
4	1921	169.218439451385	226
4	1921	169.218439451385	227
4	1940	170.510425745528	228
4	1940	170.510425745528	229
4	1940	170.510425745528	230
4	1963	171.875436095803	231
4	1963	171.875436095803	232
4	1963	171.875436095803	233
4	1985	173.056382575249	234
4	1985	173.056382575249	235
4	1985	173.056382575249	236
4	2006	175.99122092965	237
4	2006	175.99122092965	238
4	2006	175.99122092965	239
4	2033	177.543606144633	240
4	2033	177.543606144633	241
4	2033	177.543606144633	242
4	2058	181.009806705057	243
4	2058	181.009806705057	244
4	2058	181.009806705057	245
4	2075	182.831725685502	246
4	2075	182.831725685502	247
4	2075	182.831725685502	248
4	2102	184.212095270649	249
4	2102	184.212095270649	250
4	2102	184.212095270649	251
4	2121	186.120498844042	252
4	2121	186.120498844042	253
4	2121	186.120498844042	254
4	2151	190.491934994896	255
4	2151	190.491934994896	256
4	2151	190.491934994896	257
4	2174	192.307150475269	258
4	2174	192.307150475269	259
4	2174	192.307150475269	260
4	2193	194.091219044203	261
4	2193	194.091219044203	262
4	2193	194.091219044203	263
4	2222	196.55280978792	264
4	2222	196.55280978792	265
4	2222	196.55280978792	266
4	2237	198.32420781665	267
4	2237	198.32420781665	268
4	2237	198.32420781665	269
4	2264	199.444912919361	270
4	2264	199.444912919361	271
4	2264	199.444912919361	272
4	2288	201.406015202286	273
4	2288	201.406015202286	274
4	2288	201.406015202286	275
4	2314	202.925044360521	276
4	2314	202.925044360521	277
4	2314	202.925044360521	278
4	2355	207.630283847557	279
4	2355	207.630283847557	280
4	2355	207.630283847557	281
4	2385	211.615284185261	282
4	2385	211.615284185261	283
4	2385	211.615284185261	284
4	2404	214.224940856658	285
4	2404	214.224940856658	286
4	2404	214.224940856658	287
4	2427	215.946997036894	288
4	2427	215.946997036894	289
4	2427	215.946997036894	290
4	2475	218.392847339247	291
4	2475	218.392847339247	292
4	2475	218.392847339247	293
4	2498	220.391013439825	294
4	2498	220.391013439825	295
4	2498	220.391013439825	296
4	2521	222.169202193876	297
4	2521	222.169202193876	298
4	2521	222.169202193876	299
4	2539	224.948160765584	300
4	2539	224.948160765584	301
4	2539	224.948160765584	302
4	2563	226.408095326023	303
4	2563	226.408095326023	304
4	2563	226.408095326023	305
4	2585	227.494321152213	306
4	2585	227.494321152213	307
4	2585	227.494321152213	308
4	2615	228.753684239991	309
4	2615	228.753684239991	310
4	2615	228.753684239991	311
4	2634	230.105865179458	312
4	2634	230.105865179458	313
4	2634	230.105865179458	314
4	2655	231.450367539793	315
4	2655	231.450367539793	316
4	2655	231.450367539793	317
4	2679	234.101720720204	318
4	2679	234.101720720204	319
4	2679	234.101720720204	320
4	2706	235.540774541577	321
4	2706	235.540774541577	322
4	2706	235.540774541577	323
4	2729	236.659226288172	324
4	2729	236.659226288172	325
4	2729	236.659226288172	326
4	2747	239.815880388647	327
4	2747	239.815880388647	328
4	2747	239.815880388647	329
5	32	2.488839495757	0
5	32	2.488839495757	1
5	32	2.488839495757	2
5	32	2.488839495757	3
5	47	3.561844582617	4
5	47	3.561844582617	5
5	47	3.561844582617	6
5	47	3.561844582617	7
5	71	4.851640534202	8
5	71	4.851640534202	9
5	71	4.851640534202	10
5	71	4.851640534202	11
5	99	7.487624669902	12
5	99	7.487624669902	13
5	99	7.487624669902	14
5	99	7.487624669902	15
5	120	8.924132520952	16
5	120	8.924132520952	17
5	120	8.924132520952	18
5	120	8.924132520952	19
5	152	11.51890674622	20
5	152	11.51890674622	21
5	152	11.51890674622	22
5	152	11.51890674622	23
5	175	13.250362103813	24
5	175	13.250362103813	25
5	175	13.250362103813	26
5	175	13.250362103813	27
5	201	14.931111375835	28
5	201	14.931111375835	29
5	201	14.931111375835	30
5	201	14.931111375835	31
5	217	16.81651421485	32
5	217	16.81651421485	33
5	217	16.81651421485	34
5	217	16.81651421485	35
5	242	19.401662356626	36
5	242	19.401662356626	37
5	242	19.401662356626	38
5	242	19.401662356626	39
5	267	22.503408362438	40
5	267	22.503408362438	41
5	267	22.503408362438	42
5	267	22.503408362438	43
5	295	23.57371852639	44
5	295	23.57371852639	45
5	295	23.57371852639	46
5	295	23.57371852639	47
5	314	25.386379894294	48
5	314	25.386379894294	49
5	314	25.386379894294	50
5	314	25.386379894294	51
5	339	26.548039844285	52
5	339	26.548039844285	53
5	339	26.548039844285	54
5	339	26.548039844285	55
5	359	27.758876423178	56
5	359	27.758876423178	57
5	359	27.758876423178	58
5	359	27.758876423178	59
5	383	29.594581068061	60
5	383	29.594581068061	61
5	383	29.594581068061	62
5	383	29.594581068061	63
5	416	32.266405346712	64
5	416	32.266405346712	65
5	416	32.266405346712	66
5	416	32.266405346712	67
5	440	34.466220182349	68
5	440	34.466220182349	69
5	440	34.466220182349	70
5	440	34.466220182349	71
5	466	35.717529401139	72
5	466	35.717529401139	73
5	466	35.717529401139	74
5	466	35.717529401139	75
5	506	40.064723606736	76
5	506	40.064723606736	77
5	506	40.064723606736	78
5	506	40.064723606736	79
5	526	41.525280816554	80
5	526	41.525280816554	81
5	526	41.525280816554	82
5	526	41.525280816554	83
5	554	44.443643171108	84
5	554	44.443643171108	85
5	554	44.443643171108	86
5	554	44.443643171108	87
5	573	49.804138622789	88
5	573	49.804138622789	89
5	573	49.804138622789	90
5	573	49.804138622789	91
5	603	53.436910368423	92
5	603	53.436910368423	93
5	603	53.436910368423	94
5	603	53.436910368423	95
5	622	55.058177271199	96
5	622	55.058177271199	97
5	622	55.058177271199	98
5	622	55.058177271199	99
5	643	58.143132070025	100
5	643	58.143132070025	101
5	643	58.143132070025	102
5	643	58.143132070025	103
5	668	60.882777827572	104
5	668	60.882777827572	105
5	668	60.882777827572	106
5	668	60.882777827572	107
5	698	61.920583234097	108
5	698	61.920583234097	109
5	698	61.920583234097	110
5	698	61.920583234097	111
5	718	63.286596875414	112
5	718	63.286596875414	113
5	718	63.286596875414	114
5	718	63.286596875414	115
5	745	64.597215092744	116
5	745	64.597215092744	117
5	745	64.597215092744	118
5	745	64.597215092744	119
5	761	66.218056981489	120
5	761	66.218056981489	121
5	761	66.218056981489	122
5	761	66.218056981489	123
5	784	67.730169968396	124
5	784	67.730169968396	125
5	784	67.730169968396	126
5	784	67.730169968396	127
5	814	69.467774223381	128
5	814	69.467774223381	129
5	814	69.467774223381	130
5	814	69.467774223381	131
5	829	70.956041384741	132
5	829	70.956041384741	133
5	829	70.956041384741	134
5	829	70.956041384741	135
5	864	75.586005883408	136
5	864	75.586005883408	137
5	864	75.586005883408	138
5	864	75.586005883408	139
5	881	78.021269185045	140
5	881	78.021269185045	141
5	881	78.021269185045	142
5	881	78.021269185045	143
5	935	83.13181486654	144
5	935	83.13181486654	145
5	935	83.13181486654	146
5	935	83.13181486654	147
5	955	84.93278040043	148
5	955	84.93278040043	149
5	955	84.93278040043	150
5	955	84.93278040043	151
5	991	90.981086299121	152
5	991	90.981086299121	153
5	991	90.981086299121	154
5	991	90.981086299121	155
5	1011	92.442191423228	156
5	1011	92.442191423228	157
5	1011	92.442191423228	158
5	1011	92.442191423228	159
5	1030	93.529611383845	160
5	1030	93.529611383845	161
5	1030	93.529611383845	162
5	1030	93.529611383845	163
5	1049	96.434750125681	164
5	1049	96.434750125681	165
5	1049	96.434750125681	166
5	1049	96.434750125681	167
5	1071	97.898197327878	168
5	1071	97.898197327878	169
5	1071	97.898197327878	170
5	1071	97.898197327878	171
5	1095	99.381673596097	172
5	1095	99.381673596097	173
5	1095	99.381673596097	174
5	1095	99.381673596097	175
5	1124	102.021540004545	176
5	1124	102.021540004545	177
5	1124	102.021540004545	178
5	1124	102.021540004545	179
5	1146	103.731950475152	180
5	1146	103.731950475152	181
5	1146	103.731950475152	182
5	1146	103.731950475152	183
5	1169	104.947007780612	184
5	1169	104.947007780612	185
5	1169	104.947007780612	186
5	1169	104.947007780612	187
5	1195	107.660406815741	188
5	1195	107.660406815741	189
5	1195	107.660406815741	190
5	1195	107.660406815741	191
5	1218	109.200379611778	192
5	1218	109.200379611778	193
5	1218	109.200379611778	194
5	1218	109.200379611778	195
5	1241	110.987049593527	196
5	1241	110.987049593527	197
5	1241	110.987049593527	198
5	1241	110.987049593527	199
5	1262	112.044018064564	200
5	1262	112.044018064564	201
5	1262	112.044018064564	202
5	1262	112.044018064564	203
5	1283	113.950934195845	204
5	1283	113.950934195845	205
5	1283	113.950934195845	206
5	1283	113.950934195845	207
5	1311	115.811202689615	208
5	1311	115.811202689615	209
5	1311	115.811202689615	210
5	1311	115.811202689615	211
5	1334	117.674988248832	212
5	1334	117.674988248832	213
5	1334	117.674988248832	214
5	1334	117.674988248832	215
5	1350	119.595005669821	216
5	1350	119.595005669821	217
5	1350	119.595005669821	218
5	1350	119.595005669821	219
5	1380	123.371812869351	220
5	1380	123.371812869351	221
5	1380	123.371812869351	222
5	1380	123.371812869351	223
5	1403	125.070983663817	224
5	1403	125.070983663817	225
5	1403	125.070983663817	226
5	1403	125.070983663817	227
5	1426	126.918965166042	228
5	1426	126.918965166042	229
5	1426	126.918965166042	230
5	1426	126.918965166042	231
5	1451	127.940900316693	232
5	1451	127.940900316693	233
5	1451	127.940900316693	234
5	1451	127.940900316693	235
5	1471	129.19749521826	236
5	1471	129.19749521826	237
5	1471	129.19749521826	238
5	1471	129.19749521826	239
5	1499	130.378798804818	240
5	1499	130.378798804818	241
5	1499	130.378798804818	242
5	1499	130.378798804818	243
5	1513	131.871758684638	244
5	1513	131.871758684638	245
5	1513	131.871758684638	246
5	1513	131.871758684638	247
5	1536	133.551067480278	248
5	1536	133.551067480278	249
5	1536	133.551067480278	250
5	1536	133.551067480278	251
5	1564	138.695601068757	252
5	1564	138.695601068757	253
5	1564	138.695601068757	254
5	1564	138.695601068757	255
5	1586	139.832096080398	256
5	1586	139.832096080398	257
5	1586	139.832096080398	258
5	1586	139.832096080398	259
5	1614	141.212776441944	260
5	1614	141.212776441944	261
5	1614	141.212776441944	262
5	1614	141.212776441944	263
5	1634	143.846195316984	264
5	1634	143.846195316984	265
5	1634	143.846195316984	266
5	1634	143.846195316984	267
5	1659	145.761600611888	268
5	1659	145.761600611888	269
5	1659	145.761600611888	270
5	1659	145.761600611888	271
5	1680	147.083178498557	272
5	1680	147.083178498557	273
5	1680	147.083178498557	274
5	1680	147.083178498557	275
5	1704	148.896635912485	276
5	1704	148.896635912485	277
5	1704	148.896635912485	278
5	1704	148.896635912485	279
5	1729	152.635296018074	280
5	1729	152.635296018074	281
5	1729	152.635296018074	282
5	1729	152.635296018074	283
5	1749	154.590471495876	284
5	1749	154.590471495876	285
5	1749	154.590471495876	286
5	1749	154.590471495876	287
5	1772	155.793216540366	288
5	1772	155.793216540366	289
5	1772	155.793216540366	290
5	1772	155.793216540366	291
5	1794	157.267123108644	292
5	1794	157.267123108644	293
5	1794	157.267123108644	294
5	1794	157.267123108644	295
5	1822	160.723985474661	296
5	1822	160.723985474661	297
5	1822	160.723985474661	298
5	1822	160.723985474661	299
5	1841	163.73720714274	300
5	1841	163.73720714274	301
5	1841	163.73720714274	302
5	1841	163.73720714274	303
5	1874	165.549898921831	304
5	1874	165.549898921831	305
5	1874	165.549898921831	306
5	1874	165.549898921831	307
5	1887	167.186609387906	308
5	1887	167.186609387906	309
5	1887	167.186609387906	310
5	1887	167.186609387906	311
5	1916	169.195153665585	312
5	1916	169.195153665585	313
5	1916	169.195153665585	314
5	1916	169.195153665585	315
5	1935	170.497521888661	316
5	1935	170.497521888661	317
5	1935	170.497521888661	318
5	1935	170.497521888661	319
5	1957	171.870144655276	320
5	1957	171.870144655276	321
5	1957	171.870144655276	322
5	1957	171.870144655276	323
5	2001	175.97054423702	324
5	2001	175.97054423702	325
5	2001	175.97054423702	326
5	2001	175.97054423702	327
5	2021	177.52962785071	328
5	2021	177.52962785071	329
5	2021	177.52962785071	330
5	2021	177.52962785071	331
5	2048	180.989641997927	332
5	2048	180.989641997927	333
5	2048	180.989641997927	334
5	2048	180.989641997927	335
5	2071	182.826826862733	336
5	2071	182.826826862733	337
5	2071	182.826826862733	338
5	2071	182.826826862733	339
5	2096	184.198525890675	340
5	2096	184.198525890675	341
5	2096	184.198525890675	342
5	2096	184.198525890675	343
5	2115	186.108945088743	344
5	2115	186.108945088743	345
5	2115	186.108945088743	346
5	2115	186.108945088743	347
5	2140	190.476517139364	348
5	2140	190.476517139364	349
5	2140	190.476517139364	350
5	2140	190.476517139364	351
5	2163	192.289006360542	352
5	2163	192.289006360542	353
5	2163	192.289006360542	354
5	2163	192.289006360542	355
5	2192	194.084241036694	356
5	2192	194.084241036694	357
5	2192	194.084241036694	358
5	2192	194.084241036694	359
5	2211	196.514261323503	360
5	2211	196.514261323503	361
5	2211	196.514261323503	362
5	2211	196.514261323503	363
5	2241	198.343831194366	364
5	2241	198.343831194366	365
5	2241	198.343831194366	366
5	2241	198.343831194366	367
5	2259	199.429840547911	368
5	2259	199.429840547911	369
5	2259	199.429840547911	370
5	2259	199.429840547911	371
5	2279	201.389425716996	372
5	2279	201.389425716996	373
5	2279	201.389425716996	374
5	2279	201.389425716996	375
5	2304	202.909970468942	376
5	2304	202.909970468942	377
5	2304	202.909970468942	378
5	2304	202.909970468942	379
5	2325	204.629981410418	380
5	2325	204.629981410418	381
5	2325	204.629981410418	382
5	2325	204.629981410418	383
5	2346	207.599145645914	384
5	2346	207.599145645914	385
5	2346	207.599145645914	386
5	2346	207.599145645914	387
5	2377	211.590981130066	388
5	2377	211.590981130066	389
5	2377	211.590981130066	390
5	2377	211.590981130066	391
5	2399	214.215699004096	392
5	2399	214.215699004096	393
5	2399	214.215699004096	394
5	2399	214.215699004096	395
5	2422	215.939331267811	396
5	2422	215.939331267811	397
5	2422	215.939331267811	398
5	2422	215.939331267811	399
5	2447	216.968101791502	400
5	2447	216.968101791502	401
5	2447	216.968101791502	402
5	2447	216.968101791502	403
5	2464	218.366527117822	404
5	2464	218.366527117822	405
5	2464	218.366527117822	406
5	2464	218.366527117822	407
5	2493	220.379692172898	408
5	2493	220.379692172898	409
5	2493	220.379692172898	410
5	2493	220.379692172898	411
5	2510	222.155428124887	412
5	2510	222.155428124887	413
5	2510	222.155428124887	414
5	2510	222.155428124887	415
5	2545	224.966997227863	416
5	2545	224.966997227863	417
5	2545	224.966997227863	418
5	2545	224.966997227863	419
5	2557	226.390192681592	420
5	2557	226.390192681592	421
5	2557	226.390192681592	422
5	2557	226.390192681592	423
5	2580	227.481963031668	424
5	2580	227.481963031668	425
5	2580	227.481963031668	426
5	2580	227.481963031668	427
5	2606	228.724694217677	428
5	2606	228.724694217677	429
5	2606	228.724694217677	430
5	2606	228.724694217677	431
5	2633	230.100544624199	432
5	2633	230.100544624199	433
5	2633	230.100544624199	434
5	2633	230.100544624199	435
5	2651	231.448731238023	436
5	2651	231.448731238023	437
5	2651	231.448731238023	438
5	2651	231.448731238023	439
5	2678	234.094202030757	440
5	2678	234.094202030757	441
5	2678	234.094202030757	442
5	2678	234.094202030757	443
5	2697	235.513976225881	444
5	2697	235.513976225881	445
5	2697	235.513976225881	446
5	2697	235.513976225881	447
5	2720	236.624423662726	448
5	2720	236.624423662726	449
5	2720	236.624423662726	450
5	2720	236.624423662726	451
5	2746	239.815334129771	452
5	2746	239.815334129771	453
5	2746	239.815334129771	454
5	2746	239.815334129771	455
6	35	2.491412395314	0
6	62	3.585502655382	1
6	85	4.872347327744	2
6	110	7.508537376442	3
6	133	8.952575686135	4
6	187	13.27410176226	5
6	232	16.843511005323	6
6	257	19.4248751659	7
6	278	22.529769718749	8
6	305	23.60420456245	9
6	326	25.439969365206	10
6	351	26.577265209524	11
6	368	27.783078564478	12
6	395	29.626668263125	13
6	474	35.742811157271	14
6	509	40.07143171148	15
6	536	41.540558441713	16
6	553	44.442329355449	17
6	581	49.8319011316	18
6	613	53.456007434773	19
6	633	55.073215218715	20
6	655	58.174232830712	21
6	683	60.919038644011	22
6	706	61.941869242003	23
6	729	63.349749979542	24
6	748	64.603621558894	25
6	773	66.244235412508	26
6	798	67.758067491579	27
6	817	69.477470483106	28
6	844	70.987311610129	29
6	863	75.576711854582	30
6	893	78.052093596521	31
6	914	79.560776546175	32
6	947	83.161024903557	33
6	999	90.992419099779	34
6	1022	92.468540226748	35
6	1063	96.462831522753	36
6	1086	97.941192283382	37
6	1159	103.761113687917	38
6	1181	104.972218265682	39
6	1209	107.683122614775	40
6	1232	109.238403065462	41
6	1252	111.005066615455	42
6	1275	112.058571704859	43
6	1291	114.00944362754	44
6	1314	115.812734748393	45
6	1333	117.655044737948	46
6	1364	119.625179452338	47
6	1391	123.397283514017	48
6	1417	125.116368414138	49
6	1440	126.949397288633	50
6	1459	127.976301734965	51
6	1497	130.371682105983	52
6	1525	131.900569150413	53
6	1574	138.716132571776	54
6	1601	139.866239105627	55
6	1647	143.870531881427	56
6	1672	145.777605034044	57
6	1715	148.931104430705	58
6	1740	152.664317912574	59
6	1761	154.609784390375	60
6	1786	155.813492227696	61
6	1855	163.774777775188	62
6	1873	165.547370926024	63
6	1897	167.212389946341	64
6	1924	169.228439451385	65
6	1944	170.520425745528	66
6	2009	176.00122092965	67
6	2036	177.553606144633	68
6	2061	181.019806705057	69
6	2084	182.841725685502	70
6	2107	184.222095270649	71
6	2127	186.130498844042	72
6	2154	190.501934994896	73
6	2177	192.317150475269	74
6	2200	194.101219044203	75
6	2225	196.56280978792	76
6	2240	198.33420781665	77
6	2268	199.454912919361	78
6	2294	201.416015202286	79
6	2317	202.935044360521	80
6	2361	207.640283847557	81
6	2388	211.625284185261	82
6	2413	214.234940856658	83
6	2436	215.956997036894	84
6	2478	218.402847339247	85
6	2501	220.401013439825	86
6	2524	222.179202193876	87
6	2544	224.958160765584	88
6	2568	226.418095326023	89
6	2590	227.504321152213	90
6	2618	228.763684239991	91
6	2641	230.115865179458	92
6	2664	231.460367539793	93
6	2686	234.111720720204	94
6	2709	235.550774541577	95
6	2754	239.825880388647	96

