version 2
run General-0-20231004-17:50:13-8288
attr configname General
attr datetime 20231004-17:50:13
attr experiment General
attr inifile omnetpp.ini
attr iterationvars ""
attr iterationvarsf ""
attr measurement ""
attr network Multihop
attr processid 8288
attr repetition 0
attr replication #0
attr resultdir results
attr runnumber 0
attr seedset 0
param Multihop.node[*].transmissionTime "uniform(1s, 2s)"
param Multihop.node[*].delayTime "uniform(0.01s, 0.2s)"
param Multihop.node[*].processingTime exponential(0.01s)
param Multihop.node[*].lossProbability 0.1

vector 0 Multihop.node[0] txVector ETV
vector 1 Multihop.node[1] txVector ETV
vector 2 Multihop.node[2] txVector ETV
vector 3 Multihop.node[3] txVector ETV
vector 4 Multihop.node[4] txVector ETV
vector 5 Multihop.node[5] rxVector ETV
0	1	0.114274565438	0
0	11	1.707119181827	1
0	21	3.09150089005	2
0	29	4.903669616515	3
0	31	6.241065778146	4
0	33	7.889237654703	5
0	43	9.257479192065	6
0	53	11.058389944564	7
0	63	12.595763172795	8
0	69	14.332681350716	9
0	79	15.656822354839	10
0	87	17.1067723444	11
0	97	19.076581413	12
0	107	20.684412079704	13
0	117	22.337202398646	14
0	127	23.81189990377	15
0	135	25.590245385495	16
0	139	27.213091478757	17
0	149	29.185036477707	18
0	151	30.205024150042	19
0	161	31.646735071512	20
0	165	33.527210964663	21
0	175	34.74403309783	22
0	185	36.66519070983	23
0	195	38.312364848406	24
0	199	39.477305308991	25
0	209	40.623747072258	26
0	219	42.379853763693	27
0	229	44.059909336577	28
0	239	45.471729478408	29
0	249	47.060194561798	30
0	253	48.679003122803	31
0	263	50.149135311209	32
0	273	52.027587502338	33
0	283	53.061212596092	34
0	293	54.158472522702	35
0	303	55.258041607523	36
0	313	56.295600992003	37
0	319	57.706997716408	38
0	329	59.689572673132	39
0	333	60.706200642585	40
0	343	62.47111234053	41
0	347	63.810097456984	42
0	357	64.981084049754	43
0	359	66.577739462564	44
0	369	68.361383710597	45
0	379	69.628646244603	46
0	389	71.182888680679	47
0	397	72.63499771881	48
0	407	73.69141605341	49
0	409	75.233914830332	50
0	411	77.088528413401	51
0	421	78.832362955744	52
0	429	80.301860143273	53
0	439	81.531079466297	54
0	449	83.050790658529	55
0	459	84.730670113425	56
0	467	86.610967717908	57
0	477	88.322551539477	58
0	487	89.509009758087	59
0	497	90.683918630315	60
0	507	91.84887750175	61
0	511	92.941473660368	62
0	521	94.690728077042	63
0	525	96.367991383729	64
0	535	97.923640620971	65
0	537	99.105271826574	66
0	547	100.617665292072	67
0	557	102.072834109264	68
0	567	103.781382258125	69
0	577	105.755640926147	70
0	587	106.759689031709	71
0	593	108.160821373183	72
0	603	109.566941860672	73
0	607	110.926213277811	74
0	615	112.228044152101	75
0	619	114.180914823273	76
0	625	115.714380499515	77
0	627	116.965003219274	78
0	637	118.642415043739	79
0	645	120.021448816247	80
0	655	121.497926020138	81
0	665	123.350560943671	82
0	675	125.010600805358	83
0	685	126.080459822743	84
0	687	128.005623252672	85
0	691	129.720802001498	86
0	701	131.190300306847	87
0	703	132.665589751286	88
0	713	134.449237719021	89
0	723	135.98846131594	90
0	733	137.567383703385	91
0	743	139.444514671648	92
0	753	141.160758843487	93
0	763	142.469045006744	94
0	773	143.566513693267	95
0	781	144.651514762854	96
0	789	146.588261240003	97
0	797	147.895247292546	98
0	805	149.427096474524	99
0	815	151.036274052532	100
0	819	152.27344734299	101
0	821	153.795817875611	102
0	825	155.308892742107	103
0	835	156.853483618778	104
0	845	158.344508359517	105
0	855	159.654576003394	106
0	865	160.967329296126	107
0	875	162.601260248647	108
0	885	164.423819695442	109
0	887	165.821353193681	110
0	897	167.56003585186	111
0	907	169.257177462179	112
0	915	170.746686784161	113
0	925	172.663413798513	114
0	935	173.987818659825	115
0	945	175.873780925369	116
0	955	177.422300021241	117
0	961	178.554152056652	118
0	971	180.165900474259	119
0	981	181.265932526517	120
0	991	182.414410610062	121
0	1001	183.687419513551	122
0	1011	184.965193186731	123
0	1015	186.932314310999	124
0	1025	188.833797301709	125
0	1035	190.220624452767	126
0	1045	191.859651837342	127
0	1049	193.494708632429	128
0	1057	194.954928340235	129
0	1061	196.457637884732	130
0	1071	197.883145520774	131
0	1081	198.982561913629	132
1	3	0.142870607559	0
1	13	1.720650773218	1
1	23	3.108039715722	2
1	35	7.93073935399	3
1	45	9.274828836277	4
1	55	11.082603591365	5
1	65	12.608203657702	6
1	71	14.34430271561	7
1	81	15.676317300674	8
1	89	17.127360685715	9
1	99	19.090512538573	10
1	109	20.704492272158	11
1	119	22.356971039387	12
1	129	23.851771802689	13
1	137	25.611443529153	14
1	141	27.244144691765	15
1	153	30.25393985127	16
1	163	31.681774189343	17
1	167	33.545539399824	18
1	177	34.754900802653	19
1	187	36.693603534545	20
1	197	38.326982157366	21
1	201	39.495736139312	22
1	211	40.638790510324	23
1	221	42.395817557636	24
1	231	44.081162156745	25
1	241	45.492507827249	26
1	251	47.076635608881	27
1	255	48.701593557976	28
1	265	50.160220782194	29
1	275	52.072312857131	30
1	285	53.112590693697	31
1	295	54.172815979261	32
1	305	55.275140786795	33
1	315	56.307108902105	34
1	321	57.721670442072	35
1	331	59.702195966224	36
1	335	60.745046760106	37
1	345	62.483090635605	38
1	349	63.826323430424	39
1	361	66.594671460259	40
1	371	68.38274967555	41
1	381	69.641033773331	42
1	391	71.228033467484	43
1	399	72.651688856047	44
1	413	77.10504072072	45
1	423	78.848451284881	46
1	431	80.333195776148	47
1	441	81.541080019816	48
1	451	83.066881104656	49
1	461	84.74443440694	50
1	469	86.62263646432	51
1	479	88.349032301209	52
1	489	89.531199751539	53
1	499	90.695252036548	54
1	509	91.861329482676	55
1	513	92.964629922951	56
1	523	94.70137920569	57
1	527	96.378084213973	58
1	539	99.123957483889	59
1	549	100.648774179816	60
1	559	102.089728454642	61
1	569	103.811209747171	62
1	579	105.768780905128	63
1	589	106.770974834082	64
1	595	108.179242736211	65
1	605	109.58204176901	66
1	609	110.951139599453	67
1	617	112.238184618013	68
1	621	114.194547245462	69
1	629	116.991632877081	70
1	639	118.653430384578	71
1	647	120.038141844967	72
1	657	121.513607724975	73
1	667	123.362875153391	74
1	677	125.020698159451	75
1	689	128.022372762409	76
1	693	129.752232998502	77
1	705	132.683718734898	78
1	715	134.46317829474	79
1	725	135.999429290663	80
1	735	137.578364898611	81
1	745	139.454789092652	82
1	755	141.173409774501	83
1	765	142.488765115655	84
1	775	143.577505908532	85
1	783	144.667445578827	86
1	791	146.599536975741	87
1	799	147.923913697248	88
1	807	149.43813318289	89
1	817	151.064569474091	90
1	823	153.81631129727	91
1	827	155.319222781958	92
1	837	156.903459253545	93
1	847	158.372317706266	94
1	857	159.680762614058	95
1	867	161.00348570545	96
1	877	162.624663008267	97
1	889	165.837314912595	98
1	899	167.592772923527	99
1	909	169.289389604011	100
1	917	170.757895098124	101
1	927	172.68481175258	102
1	937	174.002155308379	103
1	947	175.891113178756	104
1	957	177.444607209751	105
1	963	178.575296638969	106
1	973	180.208153635096	107
1	983	181.278926056546	108
1	993	182.459501245572	109
1	1003	183.719944442252	110
1	1013	184.97703934546	111
1	1017	186.946318126314	112
1	1027	188.851349419887	113
1	1037	190.238573181128	114
1	1047	191.873213495158	115
1	1051	193.504956964506	116
1	1059	194.966596297816	117
1	1063	196.49130078737	118
1	1073	197.89656726769	119
1	1083	198.998629037721	120
2	5	0.172386060918	0
2	15	1.731234619909	1
2	25	3.123028435812	2
2	37	7.942251662527	3
2	47	9.296188225694	4
2	57	11.093723052971	5
2	67	12.619656437975	6
2	73	14.356817134931	7
2	83	15.709580811291	8
2	91	17.139234946375	9
2	101	19.100904370137	10
2	111	20.76809327566	11
2	121	22.371096051686	12
2	131	23.872634496498	13
2	143	27.261270527698	14
2	155	30.268394045889	15
2	169	33.575571805049	16
2	179	34.768154206808	17
2	189	36.706678711783	18
2	203	39.517901225846	19
2	213	40.671427846083	20
2	223	42.444247623468	21
2	233	44.094036261506	22
2	243	45.510126504962	23
2	257	48.714990205302	24
2	267	50.17119000974	25
2	277	52.086184158052	26
2	287	53.125606352829	27
2	297	54.189150605438	28
2	307	55.286966172814	29
2	317	56.317446769961	30
2	323	57.737119013353	31
2	337	60.768909673626	32
2	351	63.857083741028	33
2	363	66.605188289317	34
2	373	68.412721395225	35
2	383	69.653549759462	36
2	393	71.249444846513	37
2	401	72.682975556992	38
2	415	77.126344276179	39
2	425	78.882140466589	40
2	433	80.366674213762	41
2	443	81.554817652754	42
2	453	83.083486135453	43
2	463	84.786005362354	44
2	471	86.645746188002	45
2	481	88.372779100747	46
2	491	89.54742012073	47
2	501	90.718056280088	48
2	515	92.975096800387	49
2	529	96.405984110018	50
2	541	99.149447600681	51
2	551	100.665552199837	52
2	561	102.118342771072	53
2	571	103.836370436469	54
2	581	105.784065577411	55
2	591	106.820451166758	56
2	597	108.193452669191	57
2	611	110.987205317476	58
2	623	114.225991100107	59
2	631	117.007291822497	60
2	641	118.66638940331	61
2	649	120.054276235863	62
2	659	121.541144871425	63
2	669	123.391666337733	64
2	679	125.052958999345	65
2	695	129.768935317268	66
2	707	132.695460686502	67
2	717	134.474768414908	68
2	727	136.033569454968	69
2	737	137.593921487743	70
2	747	139.477934313633	71
2	757	141.190410030862	72
2	767	142.518644510203	73
2	777	143.597546420271	74
2	785	144.690453953102	75
2	793	146.615404663808	76
2	801	147.941598323022	77
2	809	149.44909859568	78
2	829	155.337901400657	79
2	839	156.916265012807	80
2	849	158.398769540537	81
2	859	159.69149313063	82
2	869	161.032723091157	83
2	879	162.640589582446	84
2	891	165.875006357423	85
2	901	167.604063308559	86
2	911	169.303822947971	87
2	919	170.777868087366	88
2	929	172.710685324877	89
2	939	174.025564325625	90
2	949	175.905402297114	91
2	959	177.466954008512	92
2	965	178.591229944652	93
2	975	180.218905553188	94
2	985	181.29135351092	95
2	995	182.469759526016	96
2	1005	183.730213248447	97
2	1019	186.978321419518	98
2	1029	188.890300596057	99
2	1039	190.251757111289	100
2	1053	193.523122891394	101
2	1065	196.501386267556	102
2	1075	197.914312435569	103
2	1085	199.044414054979	104
3	7	0.20117570146	0
3	17	1.744418181317	1
3	27	3.151112128455	2
3	39	7.972660584686	3
3	49	9.318940502716	4
3	59	11.110139999991	5
3	75	14.371702705424	6
3	85	15.720626423549	7
3	93	17.153668986661	8
3	103	19.120963080189	9
3	113	20.786812434196	10
3	123	22.392327734701	11
3	133	23.882771142282	12
3	145	27.271843796962	13
3	157	30.284950508733	14
3	171	33.592684284421	15
3	181	34.778248214315	16
3	191	36.721750713016	17
3	205	39.531304693228	18
3	215	40.691614433383	19
3	225	42.455482889942	20
3	235	44.10779364993	21
3	245	45.522747077379	22
3	259	48.729826562168	23
3	269	50.185560289878	24
3	279	52.098684973002	25
3	289	53.143307121424	26
3	299	54.217547933289	27
3	309	55.31206440737	28
3	325	57.747638138875	29
3	339	60.783055799053	30
3	353	63.895929183912	31
3	365	66.627197998382	32
3	375	68.436618165863	33
3	385	69.66601835215	34
3	395	71.260336389413	35
3	403	72.73044250313	36
3	417	77.145684879505	37
3	427	78.893616426918	38
3	435	80.387052714517	39
3	445	81.570359361044	40
3	455	83.109032764831	41
3	465	84.80238724841	42
3	473	86.666138244368	43
3	483	88.394013705742	44
3	493	89.575772754759	45
3	503	90.728365543004	46
3	517	92.98744335888	47
3	531	96.457543820974	48
3	543	99.168773719234	49
3	553	100.688124569793	50
3	563	102.130503733238	51
3	573	103.888389030731	52
3	583	105.799655654111	53
3	599	108.219005612795	54
3	613	111.001140341587	55
3	633	117.03124051341	56
3	643	118.68535269536	57
3	651	120.071712067781	58
3	661	121.558264952081	59
3	671	123.413103243939	60
3	681	125.064391529559	61
3	697	129.784289360779	62
3	709	132.707013542357	63
3	719	134.486510402074	64
3	729	136.044435624912	65
3	739	137.610331223196	66
3	749	139.502499915749	67
3	759	141.23114078309	68
3	769	142.530359896477	69
3	779	143.637364216844	70
3	787	144.714011138241	71
3	795	146.630376756671	72
3	803	147.963001111791	73
3	811	149.459674524848	74
3	831	155.362645622905	75
3	841	156.93095422608	76
3	851	158.418986724011	77
3	861	159.712999756559	78
3	871	161.049608230037	79
3	881	162.685296033251	80
3	893	165.887980092702	81
3	903	167.616828035724	82
3	913	169.318688139369	83
3	921	170.789293116823	84
3	931	172.72769577997	85
3	941	174.043669257097	86
3	951	175.915651578071	87
3	967	178.613139759186	88
3	977	180.229100446118	89
3	987	181.310026431108	90
3	997	182.501655993162	91
3	1007	183.750038531874	92
3	1021	186.99550507787	93
3	1031	188.922636994568	94
3	1041	190.263361952363	95
3	1055	193.537603771078	96
3	1067	196.546080205944	97
3	1077	197.93719133796	98
3	1087	199.072360786119	99
4	9	0.220945765724	0
4	19	1.7609126448	1
4	41	7.989077676413	2
4	51	9.337663714666	3
4	61	11.122202032811	4
4	77	14.404991839166	5
4	95	17.177559413559	6
4	105	19.16289254661	7
4	115	20.802163080967	8
4	125	22.406143293135	9
4	147	27.287843265828	10
4	159	30.306619243998	11
4	173	33.627540107991	12
4	183	34.806721490825	13
4	193	36.739798687014	14
4	207	39.546983734763	15
4	217	40.723829502368	16
4	227	42.480051075528	17
4	237	44.151437354461	18
4	247	45.537770185362	19
4	261	48.753656354233	20
4	271	50.203585809736	21
4	281	52.110207909255	22
4	291	53.159247856407	23
4	301	54.251049706187	24
4	311	55.342084272325	25
4	327	57.762187257323	26
4	341	60.799780404221	27
4	355	63.915300571089	28
4	367	66.685989327262	29
4	377	68.479997509202	30
4	387	69.684448139904	31
4	405	72.750056898846	32
4	419	77.168226912206	33
4	437	80.400978444799	34
4	447	81.602016997853	35
4	457	83.121639166125	36
4	475	86.678557440816	37
4	485	88.407255696877	38
4	495	89.588065198011	39
4	505	90.752108973148	40
4	519	93.000824906028	41
4	533	96.479700725708	42
4	545	99.181237877456	43
4	555	100.704782994659	44
4	565	102.155346158065	45
4	575	103.912395787701	46
4	585	105.813191619864	47
4	601	108.234305228588	48
4	635	117.058936711642	49
4	653	120.087546305491	50
4	663	121.569168324522	51
4	673	123.425067862798	52
4	683	125.089496145571	53
4	699	129.796202321238	54
4	711	132.727496433407	55
4	721	134.497896270288	56
4	731	136.070548944903	57
4	741	137.629010923016	58
4	751	139.512598060113	59
4	761	141.24930096873	60
4	771	142.58919488638	61
4	813	149.470579599549	62
4	833	155.377365303783	63
4	843	156.941421575097	64
4	853	158.433577003286	65
4	863	159.727791883504	66
4	873	161.06519149793	67
4	883	162.699808421236	68
4	895	165.902788874945	69
4	905	167.629419158283	70
4	923	170.803981073739	71
4	933	172.741208992785	72
4	943	174.055919682036	73
4	953	175.927263003859	74
4	969	178.627893155882	75
4	979	180.278009547022	76
4	989	181.357220514217	77
4	999	182.523986880434	78
4	1009	183.764036484599	79
4	1023	187.012651419744	80
4	1033	188.943941566551	81
4	1043	190.292762434462	82
4	1069	196.567820907312	83
4	1079	197.952115751724	84
4	1089	199.106987228813	85
5	10	0.230945765724	0
5	20	1.7709126448	1
5	42	7.999077676413	2
5	52	9.347663714666	3
5	62	11.132202032811	4
5	78	14.414991839166	5
5	96	17.187559413559	6
5	106	19.17289254661	7
5	116	20.812163080967	8
5	126	22.416143293135	9
5	148	27.297843265828	10
5	160	30.316619243998	11
5	184	34.816721490825	12
5	208	39.556983734763	13
5	218	40.733829502368	14
5	228	42.490051075528	15
5	238	44.161437354461	16
5	248	45.547770185362	17
5	262	48.763656354233	18
5	272	50.213585809736	19
5	282	52.120207909255	20
5	292	53.169247856407	21
5	302	54.261049706187	22
5	312	55.352084272325	23
5	328	57.772187257323	24
5	356	63.925300571089	25
5	368	66.695989327262	26
5	378	68.489997509202	27
5	388	69.694448139904	28
5	406	72.760056898846	29
5	420	77.178226912206	30
5	438	80.410978444799	31
5	448	81.612016997853	32
5	458	83.131639166125	33
5	476	86.688557440816	34
5	486	88.417255696877	35
5	496	89.598065198011	36
5	506	90.762108973148	37
5	520	93.010824906028	38
5	534	96.489700725708	39
5	546	99.191237877456	40
5	556	100.714782994659	41
5	576	103.922395787701	42
5	586	105.823191619864	43
5	602	108.244305228588	44
5	636	117.068936711642	45
5	654	120.097546305491	46
5	674	123.435067862798	47
5	684	125.099496145571	48
5	700	129.806202321238	49
5	712	132.737496433407	50
5	722	134.507896270288	51
5	732	136.080548944903	52
5	742	137.639010923016	53
5	752	139.522598060113	54
5	762	141.25930096873	55
5	772	142.59919488638	56
5	814	149.480579599549	57
5	844	156.951421575097	58
5	864	159.737791883504	59
5	874	161.07519149793	60
5	884	162.709808421236	61
5	896	165.912788874945	62
5	906	167.639419158283	63
5	924	170.813981073739	64
5	934	172.751208992785	65
5	944	174.065919682036	66
5	954	175.937263003859	67
5	970	178.637893155882	68
5	980	180.288009547022	69
5	990	181.367220514217	70
5	1000	182.533986880434	71
5	1010	183.774036484599	72
5	1024	187.022651419744	73
5	1034	188.953941566551	74
5	1070	196.577820907312	75

