version 2
run General-2-20231004-17:50:13-8288
attr configname General
attr datetime 20231004-17:50:13
attr experiment General
attr inifile omnetpp.ini
attr iterationvars ""
attr iterationvarsf ""
attr measurement ""
attr network Multihop
attr processid 8288
attr repetition 2
attr replication #2
attr resultdir results
attr runnumber 2
attr seedset 2
param Multihop.node[*].transmissionTime "uniform(1s, 2s)"
param Multihop.node[*].delayTime "uniform(0.01s, 0.2s)"
param Multihop.node[*].processingTime exponential(0.01s)
param Multihop.node[*].lossProbability 0.1

vector 0 Multihop.node[0] txVector ETV
vector 1 Multihop.node[1] txVector ETV
vector 2 Multihop.node[2] txVector ETV
vector 3 Multihop.node[3] txVector ETV
vector 4 Multihop.node[4] txVector ETV
vector 5 Multihop.node[5] rxVector ETV
0	1	0.092839031499	0
0	3	1.277921112972	1
0	13	3.20946197656	2
0	23	4.908324665874	3
0	33	6.591350660911	4
0	39	8.137557977364	5
0	43	10.107190385014	6
0	47	11.395059204912	7
0	57	12.576786242211	8
0	67	14.154094312358	9
0	77	15.947184055363	10
0	87	17.095748835727	11
0	97	18.411046316865	12
0	103	19.685219570314	13
0	111	21.633309993678	14
0	115	23.379941406678	15
0	125	25.268245153147	16
0	135	26.749266908289	17
0	145	28.6818954691	18
0	155	30.255537967448	19
0	163	31.611291591328	20
0	173	32.974617482646	21
0	183	34.386363923334	22
0	193	36.033378149167	23
0	203	37.62587451238	24
0	213	39.102717918593	25
0	223	40.31852431597	26
0	233	42.24766421669	27
0	243	44.14403809306	28
0	253	45.421477308281	29
0	261	46.421600892458	30
0	271	48.301591243612	31
0	277	50.171299864788	32
0	287	51.676711499941	33
0	295	53.397059523983	34
0	301	55.209841475606	35
0	303	56.225951740768	36
0	309	58.160987468686	37
0	311	59.980452844191	38
0	313	61.070823222182	39
0	323	62.429063529956	40
0	333	63.431646104452	41
0	343	64.794073486716	42
0	345	66.117756689216	43
0	355	67.853108083379	44
0	365	68.863909006134	45
0	375	70.749736407321	46
0	377	72.225275378224	47
0	379	73.390142520672	48
0	389	75.217595871087	49
0	399	76.285331110252	50
0	407	78.143799451195	51
0	417	79.569774200922	52
0	427	81.237101367923	53
0	437	82.305700554994	54
0	447	83.430919124295	55
0	449	85.187419408017	56
0	459	86.457597167946	57
0	469	87.640881952148	58
0	479	88.79136841676	59
0	489	89.832637533795	60
0	499	91.172300804889	61
0	509	92.626379110867	62
0	515	94.012962571595	63
0	523	95.2553000746	64
0	533	97.106972348428	65
0	541	98.167279951292	66
0	551	99.330619221105	67
0	561	100.696097608207	68
0	571	102.228482514171	69
0	573	103.24701210765	70
0	583	104.455053724598	71
0	593	105.69144094155	72
0	597	106.941010629542	73
0	601	108.072289852209	74
0	605	109.286532731045	75
0	615	110.760425637959	76
0	625	111.904846101784	77
0	635	113.135391714535	78
0	641	115.003310183547	79
0	651	116.451723644295	80
0	661	118.197262458987	81
0	663	119.450509295351	82
0	665	121.261282499199	83
0	669	123.031116689108	84
0	679	124.207413699496	85
0	689	125.856192311989	86
0	699	127.50857477637	87
0	709	129.002482997738	88
0	713	130.054377149809	89
0	723	131.668008582918	90
0	733	133.147188909138	91
0	743	135.092063503359	92
0	753	136.812280149218	93
0	763	138.014179651877	94
0	769	139.09605902412	95
0	779	140.555749320444	96
0	789	142.341490170006	97
0	795	143.472354641669	98
0	797	145.313417235408	99
0	807	146.349202212896	100
0	817	147.903128451919	101
0	821	149.208324588621	102
0	831	151.207641504258	103
0	841	152.480047284179	104
0	851	153.78392158567	105
0	857	155.424569247077	106
0	867	156.781079056692	107
0	877	157.985621286575	108
0	879	159.601964557795	109
0	889	161.538183785528	110
0	899	163.396301121935	111
0	901	164.51833904094	112
0	911	166.397573643149	113
0	921	168.199602644443	114
0	929	169.855202962197	115
0	937	171.678004529811	116
0	947	173.323985061626	117
0	957	175.131951773557	118
0	967	176.155896468572	119
0	977	177.594421510137	120
0	983	179.424050679681	121
0	993	180.449089285703	122
0	1003	181.953111232742	123
0	1013	183.294439178909	124
0	1023	184.690021171252	125
0	1029	186.121041231806	126
0	1039	187.666202644369	127
0	1049	188.708088635018	128
0	1051	190.298813449468	129
0	1059	191.456852062156	130
0	1069	193.283649542618	131
0	1079	194.593173502961	132
0	1083	196.501108834537	133
0	1093	197.621949584008	134
0	1103	198.645057942736	135
1	5	1.317434556699	0
1	15	3.220739748289	1
1	25	4.925227402358	2
1	35	6.606581462163	3
1	41	8.151082222404	4
1	45	10.118425554325	5
1	49	11.411877119288	6
1	59	12.588623347193	7
1	69	14.174972869707	8
1	79	15.976308492187	9
1	89	17.108742781981	10
1	99	18.437051117847	11
1	105	19.712529110109	12
1	113	21.648958197737	13
1	117	23.418276402014	14
1	127	25.310512653082	15
1	137	26.77168771401	16
1	147	28.696903121286	17
1	157	30.267932389532	18
1	165	31.628287408045	19
1	175	32.994582805843	20
1	185	34.428028102476	21
1	195	36.05880399392	22
1	205	37.641341430449	23
1	215	39.129179515424	24
1	225	40.366526176904	25
1	235	42.275855351591	26
1	245	44.181565647084	27
1	255	45.43245229293	28
1	263	46.446962391642	29
1	273	48.314813121188	30
1	279	50.185380970795	31
1	289	51.687240110327	32
1	297	53.414953301291	33
1	305	56.24090430991	34
1	315	61.081014898777	35
1	325	62.444750653842	36
1	335	63.462291818187	37
1	347	66.129809599518	38
1	357	67.881977272169	39
1	367	68.875576232777	40
1	381	73.407901241368	41
1	391	75.23748935799	42
1	401	76.300138320044	43
1	409	78.158047431335	44
1	419	79.591570869268	45
1	429	81.248127766463	46
1	439	82.316472182338	47
1	451	85.217532022743	48
1	461	86.511262524842	49
1	471	87.6527989197	50
1	481	88.806913392622	51
1	491	89.853167009261	52
1	501	91.184232341249	53
1	511	92.649647497293	54
1	517	94.025277085646	55
1	525	95.269619041348	56
1	535	97.11835170071	57
1	543	98.190301797642	58
1	553	99.349513204799	59
1	563	100.711252555579	60
1	575	103.257241893461	61
1	585	104.478037596036	62
1	595	105.702984059491	63
1	599	106.979953019722	64
1	603	108.093666130516	65
1	607	109.305076373381	66
1	617	110.788549966715	67
1	627	111.938482475584	68
1	637	113.147860788238	69
1	643	115.014258434306	70
1	653	116.466269137484	71
1	667	121.287164904627	72
1	671	123.050383656919	73
1	681	124.21967468697	74
1	691	125.881079455846	75
1	701	127.522409742892	76
1	711	129.023119544144	77
1	715	130.072106827955	78
1	725	131.689236283701	79
1	735	133.172102028418	80
1	745	135.114477504942	81
1	755	136.846038099708	82
1	765	138.030902386921	83
1	771	139.125862334278	84
1	781	140.575951870366	85
1	791	142.353897404829	86
1	799	145.330124373067	87
1	809	146.372862235474	88
1	819	147.919756037443	89
1	823	149.230665663392	90
1	833	151.222786401116	91
1	843	152.492299278843	92
1	853	153.80493052761	93
1	859	155.51208127103	94
1	869	156.792875498152	95
1	881	159.613623538346	96
1	891	161.550164548764	97
1	903	164.544942862484	98
1	913	166.409276605242	99
1	923	168.215719433028	100
1	931	169.896035110733	101
1	939	171.692699130133	102
1	949	173.336775414225	103
1	959	175.142082329047	104
1	969	176.167329462386	105
1	979	177.608238516256	106
1	985	179.437082240882	107
1	995	180.475422424657	108
1	1005	181.988758881341	109
1	1015	183.315496671166	110
1	1025	184.707807526912	111
1	1031	186.14358180328	112
1	1041	187.680858053677	113
1	1053	190.317399416977	114
1	1061	191.482376000205	115
1	1071	193.293804532406	116
1	1081	194.609692515333	117
1	1085	196.513460963205	118
1	1095	197.63342240894	119
1	1105	198.670689310088	120
2	7	1.33406556975	0
2	17	3.237379048478	1
2	27	4.944065564662	2
2	37	6.618529266116	3
2	51	11.430218816457	4
2	61	12.603203645123	5
2	71	14.194466942876	6
2	81	15.993432319821	7
2	91	17.135306781931	8
2	101	18.463878648439	9
2	107	19.729768042892	10
2	119	23.435268301024	11
2	129	25.326064304373	12
2	139	26.788974022693	13
2	149	28.733014182377	14
2	159	30.28242698907	15
2	167	31.652875553593	16
2	177	33.008766966026	17
2	187	34.454296595079	18
2	197	36.076399950569	19
2	207	37.66047886954	20
2	217	39.155185317434	21
2	227	40.401502293698	22
2	237	42.293543841618	23
2	247	44.197797057326	24
2	257	45.444377422732	25
2	265	46.464508813439	26
2	275	48.326382119906	27
2	281	50.197144708787	28
2	291	51.707002437541	29
2	299	53.425137691233	30
2	307	56.275056867751	31
2	317	61.096993754654	32
2	327	62.463597949543	33
2	337	63.47892874603	34
2	349	66.141226292338	35
2	359	67.894763395956	36
2	369	68.914893319794	37
2	383	73.422273468556	38
2	393	75.257566389684	39
2	403	76.34359991771	40
2	411	78.175794965684	41
2	421	79.605784373844	42
2	431	81.260693427598	43
2	441	82.330415153366	44
2	453	85.264028366373	45
2	463	86.521675118524	46
2	473	87.664408548473	47
2	483	88.850266617967	48
2	493	89.873414585541	49
2	503	91.197176242889	50
2	513	92.695972986125	51
2	519	94.040800671384	52
2	527	95.284133524177	53
2	537	97.135660711059	54
2	545	98.202759617948	55
2	555	99.365875109361	56
2	565	100.721673762611	57
2	577	103.267791632736	58
2	587	104.490321952919	59
2	609	109.320460280596	60
2	619	110.803877554788	61
2	629	111.95222777887	62
2	639	113.170061158368	63
2	645	115.0314433057	64
2	655	116.490090768015	65
2	673	123.064520171709	66
2	683	124.252347326782	67
2	693	125.903876877879	68
2	703	127.542950736622	69
2	717	130.105359696294	70
2	727	131.705789466172	71
2	737	133.209293618561	72
2	747	135.127273918522	73
2	757	136.864710093345	74
2	767	138.053903754782	75
2	773	139.13853539515	76
2	783	140.600557773673	77
2	793	142.368757254452	78
2	801	145.349927310492	79
2	811	146.406232930919	80
2	825	149.2483725746	81
2	835	151.233480958194	82
2	845	152.541501630655	83
2	855	153.831786733431	84
2	861	155.528272949771	85
2	871	156.804659861723	86
2	883	159.628367237629	87
2	893	161.565275214292	88
2	905	164.557720590861	89
2	915	166.447437800289	90
2	925	168.237448286398	91
2	933	169.910498393032	92
2	941	171.703759253912	93
2	951	173.347299441832	94
2	961	175.153417496182	95
2	971	176.177618690736	96
2	981	177.651170477517	97
2	987	179.457047468218	98
2	997	180.486922041105	99
2	1007	182.024429199063	100
2	1017	183.325790598594	101
2	1027	184.722743327972	102
2	1033	186.166253206504	103
2	1043	187.693930639637	104
2	1055	190.335752576444	105
2	1063	191.495608226515	106
2	1073	193.30630060086	107
2	1087	196.538284158206	108
2	1097	197.647260125829	109
3	9	1.34793008644	0
3	19	3.257395839035	1
3	29	4.966786447803	2
3	53	11.442726985555	3
3	63	12.619527432365	4
3	73	14.251409139551	5
3	83	16.005881993497	6
3	93	17.149671315765	7
3	109	19.742265461532	8
3	121	23.457376329683	9
3	131	25.33996328666	10
3	141	26.820556411546	11
3	151	28.743069780861	12
3	161	30.313488975582	13
3	169	31.687465085936	14
3	179	33.023574666843	15
3	189	34.466902271406	16
3	199	36.12091136295	17
3	209	37.67160577081	18
3	219	39.173271783843	19
3	229	40.411910630676	20
3	239	42.307419876186	21
3	249	44.226922030804	22
3	259	45.461610583264	23
3	267	46.477708633128	24
3	283	50.209620223609	25
3	293	51.720374932451	26
3	319	61.107302143862	27
3	329	62.521861417639	28
3	339	63.502549136377	29
3	351	66.151326511922	30
3	361	67.916158590517	31
3	371	68.928371091038	32
3	385	73.450724924433	33
3	395	75.282251719754	34
3	405	76.368754925858	35
3	413	78.191437474135	36
3	423	79.624359381149	37
3	433	81.290428232428	38
3	443	82.354562282654	39
3	455	85.288134770003	40
3	465	86.536703925524	41
3	475	87.674541802715	42
3	485	88.862283941318	43
3	495	89.885939055573	44
3	505	91.220109022943	45
3	521	94.06345684228	46
3	529	95.298232668658	47
3	539	97.167161212978	48
3	547	98.230775646755	49
3	557	99.38043038359	50
3	567	100.734957513887	51
3	579	103.283450314935	52
3	589	104.502552090779	53
3	611	109.331889324206	54
3	621	110.814179897106	55
3	631	111.968526436073	56
3	647	115.045401499911	57
3	657	116.507158602118	58
3	675	123.099908834539	59
3	685	124.27921949803	60
3	695	125.933272340871	61
3	705	127.554003952241	62
3	719	130.118726506644	63
3	729	131.717536297277	64
3	739	133.221929075647	65
3	749	135.14753421753	66
3	759	136.879765258816	67
3	775	139.152095307907	68
3	785	140.628536457512	69
3	803	145.363080688907	70
3	813	146.418554817406	71
3	827	149.260366458248	72
3	837	151.253261543777	73
3	847	152.554710757082	74
3	863	155.547722911916	75
3	873	156.85763000565	76
3	885	159.645764554623	77
3	895	161.579650877308	78
3	907	164.575159648703	79
3	917	166.464934097787	80
3	927	168.252829017285	81
3	935	169.920876323453	82
3	943	171.717405005378	83
3	953	173.36205906567	84
3	963	175.166887042939	85
3	973	176.194742694107	86
3	989	179.472863587727	87
3	999	180.500968291906	88
3	1009	182.045334521575	89
3	1019	183.350129677734	90
3	1035	186.208370349882	91
3	1045	187.707206340969	92
3	1057	190.349652776063	93
3	1065	191.50633920758	94
3	1075	193.316742428174	95
3	1089	196.556288937069	96
3	1099	197.661323235209	97
4	11	1.359607490352	0
4	21	3.284445789976	1
4	31	4.979777223103	2
4	55	11.467315256596	3
4	65	12.640148293489	4
4	75	14.262681620425	5
4	85	16.065888286585	6
4	95	17.165979473415	7
4	123	23.479636537257	8
4	133	25.364315191922	9
4	143	26.83862256845	10
4	153	28.766107657097	11
4	171	31.714973257885	12
4	181	33.066398036274	13
4	191	34.498038629419	14
4	201	36.139466930879	15
4	211	37.686204047281	16
4	221	39.205823622652	17
4	231	40.435109050686	18
4	241	42.32248247004	19
4	251	44.23931434565	20
4	269	46.487976017665	21
4	285	50.237730726146	22
4	321	61.120454101383	23
4	331	62.537579935543	24
4	341	63.526580732304	25
4	353	66.165995254111	26
4	363	67.937463947419	27
4	373	68.951711926334	28
4	387	73.461048140823	29
4	397	75.298074732393	30
4	415	78.21669915606	31
4	425	79.639787831183	32
4	435	81.303725224549	33
4	445	82.369825053953	34
4	457	85.327589600119	35
4	467	86.555830558254	36
4	477	87.68455722195	37
4	487	88.88595035918	38
4	497	89.909812134846	39
4	507	91.235067970438	40
4	531	95.313444432608	41
4	549	98.241836762035	42
4	559	99.425680234372	43
4	569	100.755940260319	44
4	581	103.296839404525	45
4	591	104.52429170267	46
4	613	109.345903909216	47
4	623	110.843179793479	48
4	633	112.010641961975	49
4	649	115.075448206149	50
4	659	116.52215752857	51
4	677	123.114103044929	52
4	687	124.306854435227	53
4	697	125.980798867038	54
4	707	127.564022796562	55
4	721	130.138703342157	56
4	731	131.727854321108	57
4	741	133.232983992806	58
4	751	135.159740682881	59
4	761	136.904941028387	60
4	777	139.169746961097	61
4	787	140.649554277037	62
4	805	145.37920852049	63
4	815	146.430007430888	64
4	829	149.271294733307	65
4	839	151.26378221259	66
4	849	152.56889089088	67
4	865	155.59372074788	68
4	875	156.887696251073	69
4	887	159.65697684103	70
4	897	161.59178531156	71
4	909	164.585794364593	72
4	919	166.484160828201	73
4	945	171.73082128147	74
4	955	173.398559120821	75
4	965	175.189497711892	76
4	975	176.207629971717	77
4	991	179.489085581062	78
4	1001	180.523260517391	79
4	1011	182.070743049817	80
4	1021	183.363246281652	81
4	1037	186.248247094181	82
4	1047	187.718580917958	83
4	1067	191.519707283653	84
4	1077	193.327475632927	85
4	1091	196.574041583791	86
4	1101	197.674007740074	87
5	12	1.369607490352	0
5	22	3.294445789976	1
5	32	4.989777223103	2
5	56	11.477315256596	3
5	66	12.650148293489	4
5	76	14.272681620425	5
5	86	16.075888286585	6
5	96	17.175979473415	7
5	124	23.489636537257	8
5	144	26.84862256845	9
5	172	31.724973257885	10
5	192	34.508038629419	11
5	202	36.149466930879	12
5	212	37.696204047281	13
5	222	39.215823622652	14
5	232	40.445109050686	15
5	242	42.33248247004	16
5	270	46.497976017665	17
5	286	50.247730726146	18
5	322	61.130454101383	19
5	332	62.547579935543	20
5	342	63.536580732304	21
5	354	66.175995254111	22
5	364	67.947463947419	23
5	374	68.961711926334	24
5	388	73.471048140823	25
5	398	75.308074732393	26
5	416	78.22669915606	27
5	426	79.649787831183	28
5	436	81.313725224549	29
5	446	82.379825053953	30
5	458	85.337589600119	31
5	468	86.565830558254	32
5	478	87.69455722195	33
5	488	88.89595035918	34
5	498	89.919812134846	35
5	508	91.245067970438	36
5	532	95.323444432608	37
5	550	98.251836762035	38
5	560	99.435680234372	39
5	570	100.765940260319	40
5	582	103.306839404525	41
5	592	104.53429170267	42
5	614	109.355903909216	43
5	624	110.853179793479	44
5	634	112.020641961975	45
5	660	116.53215752857	46
5	678	123.124103044929	47
5	688	124.316854435227	48
5	698	125.990798867038	49
5	708	127.574022796562	50
5	722	130.148703342157	51
5	762	136.914941028387	52
5	778	139.179746961097	53
5	788	140.659554277037	54
5	806	145.38920852049	55
5	816	146.440007430888	56
5	830	149.281294733307	57
5	840	151.27378221259	58
5	866	155.60372074788	59
5	876	156.897696251073	60
5	888	159.66697684103	61
5	898	161.60178531156	62
5	910	164.595794364593	63
5	920	166.494160828201	64
5	946	171.74082128147	65
5	956	173.408559120821	66
5	966	175.199497711892	67
5	976	176.217629971717	68
5	1002	180.533260517391	69
5	1012	182.080743049817	70
5	1022	183.373246281652	71
5	1038	186.258247094181	72
5	1048	187.728580917958	73
5	1068	191.529707283653	74
5	1078	193.337475632927	75
5	1092	196.584041583791	76
5	1102	197.684007740074	77

