version 2
run General-4-20231004-17:50:13-8288
attr configname General
attr datetime 20231004-17:50:13
attr experiment General
attr inifile omnetpp.ini
attr iterationvars ""
attr iterationvarsf ""
attr measurement ""
attr network Multihop
attr processid 8288
attr repetition 4
attr replication #4
attr resultdir results
attr runnumber 4
attr seedset 4
param Multihop.node[*].transmissionTime "uniform(1s, 2s)"
param Multihop.node[*].delayTime "uniform(0.01s, 0.2s)"
param Multihop.node[*].processingTime exponential(0.01s)
param Multihop.node[*].lossProbability 0.1

vector 0 Multihop.node[0] txVector ETV
vector 1 Multihop.node[1] txVector ETV
vector 2 Multihop.node[2] txVector ETV
vector 3 Multihop.node[3] txVector ETV
vector 4 Multihop.node[4] txVector ETV
vector 5 Multihop.node[5] rxVector ETV
0	1	0.193735669288	0
0	11	2.094357123985	1
0	15	3.235821296847	2
0	25	4.934241536227	3
0	33	6.295737877642	4
0	37	7.908263220838	5
0	47	9.552177484068	6
0	51	10.998526684628	7
0	61	12.064236223386	8
0	71	13.934542698707	9
0	81	15.145723254341	10
0	91	16.778387232605	11
0	101	18.246137585645	12
0	111	20.175544240433	13
0	121	21.861132443804	14
0	131	23.217505533635	15
0	135	24.91648655959	16
0	145	25.996465799553	17
0	149	27.096846226524	18
0	159	29.040796899624	19
0	161	30.062415595321	20
0	171	31.58308999675	21
0	181	33.414225429452	22
0	191	34.6503770956	23
0	201	36.618056724935	24
0	211	37.754982543101	25
0	213	39.631775399826	26
0	223	41.568909905308	27
0	233	43.031239267594	28
0	243	44.94875107628	29
0	251	45.959177748223	30
0	253	47.621480183366	31
0	257	49.205023714963	32
0	267	51.109400336787	33
0	273	52.244145982822	34
0	275	53.735933620406	35
0	285	55.66734788792	36
0	295	57.183119566103	37
0	301	58.912674154777	38
0	309	60.228950660599	39
0	319	61.455931679967	40
0	329	63.453335667883	41
0	337	65.330413571714	42
0	339	67.058142243108	43
0	349	68.74792753711	44
0	359	69.764411155289	45
0	365	70.867206395758	46
0	375	72.062154083434	47
0	385	73.453822141435	48
0	395	74.537722523944	49
0	403	75.773100594213	50
0	413	77.058345187843	51
0	423	78.309843653968	52
0	431	79.446198843109	53
0	441	80.554190036297	54
0	451	82.479377149293	55
0	461	84.21648802484	56
0	471	86.008488603789	57
0	477	87.071055509537	58
0	487	88.420786607233	59
0	489	89.711626460464	60
0	499	91.457454024502	61
0	503	92.548128588279	62
0	513	94.083148754821	63
0	515	95.438770412854	64
0	525	96.746175300251	65
0	527	98.476390631558	66
0	537	100.072893908402	67
0	541	101.141863342529	68
0	551	102.926474078247	69
0	561	104.807875673441	70
0	571	106.312876084974	71
0	581	108.28785604254	72
0	591	109.387055337584	73
0	599	110.582166497983	74
0	609	112.24120202513	75
0	619	113.352772929627	76
0	629	114.71100580568	77
0	635	115.955805080166	78
0	643	117.326042375915	79
0	651	118.483135843339	80
0	661	120.14121255783	81
0	671	121.885182047185	82
0	681	123.294263118335	83
0	691	124.634629280229	84
0	699	126.430542085941	85
0	707	128.39607139576	86
0	715	130.314254697103	87
0	725	132.067320241516	88
0	735	133.597654053632	89
0	745	134.767271884175	90
0	755	136.161360690527	91
0	765	137.434253206866	92
0	771	138.748836852068	93
0	781	140.601650398614	94
0	791	141.656727401231	95
0	801	142.922122366651	96
0	803	144.436946166837	97
0	805	146.001803272096	98
0	815	147.120948168374	99
0	825	148.694730042172	100
0	835	149.910190271604	101
0	845	151.750429285149	102
0	855	152.852194800432	103
0	859	154.713518132846	104
0	863	155.898784412694	105
0	873	156.995634835138	106
0	883	158.242937372922	107
0	893	159.276364233037	108
0	903	160.623571644695	109
0	913	162.60781358431	110
0	919	164.24884203162	111
0	929	166.020540138166	112
0	939	167.081920156879	113
0	949	168.499890047516	114
0	959	169.942755277659	115
0	969	171.1650060035	116
0	975	172.674773701857	117
0	985	174.604692984996	118
0	995	176.587554297335	119
0	1005	178.432940789191	120
0	1015	179.473123091664	121
0	1025	180.932616911055	122
0	1027	182.774656799081	123
0	1033	184.681218631723	124
0	1035	186.374050976866	125
0	1045	188.146366319078	126
0	1047	189.721510461922	127
0	1053	190.998037413386	128
0	1063	192.772962050437	129
0	1073	194.500043847988	130
0	1077	196.333855766029	131
0	1081	197.966895836097	132
0	1083	199.955082256504	133
1	3	0.205631491707	0
1	13	2.106899673373	1
1	17	3.269170161585	2
1	27	4.953508279203	3
1	35	6.308836797042	4
1	39	7.934926589971	5
1	49	9.567999779015	6
1	53	11.010460848219	7
1	63	12.092269891576	8
1	73	13.946535999692	9
1	83	15.158246822177	10
1	93	16.792830846767	11
1	103	18.258831310484	12
1	113	20.214932851172	13
1	123	21.894626705071	14
1	133	23.238577318602	15
1	137	24.926943311995	16
1	147	26.007129883593	17
1	151	27.108624006133	18
1	163	30.076083030972	19
1	173	31.608543045203	20
1	183	33.430792809446	21
1	193	34.66424277814	22
1	203	36.62925030897	23
1	215	39.64875997383	24
1	225	41.580481852209	25
1	235	43.068076115406	26
1	245	44.96136338505	27
1	255	47.64445800202	28
1	259	49.21519230475	29
1	269	51.125786321889	30
1	277	53.773405767684	31
1	287	55.684075239967	32
1	297	57.201451578054	33
1	303	58.936692517911	34
1	311	60.253821608012	35
1	321	61.46942204415	36
1	331	63.472417849106	37
1	341	67.074150123751	38
1	351	68.761687085027	39
1	361	69.775399205153	40
1	367	70.882217398662	41
1	377	72.075754709487	42
1	387	73.473376668289	43
1	397	74.552927230724	44
1	405	75.786254060862	45
1	415	77.088248300933	46
1	425	78.327749177817	47
1	433	79.457148461485	48
1	443	80.566180322364	49
1	453	82.506986041559	50
1	463	84.288726998337	51
1	473	86.020670467293	52
1	479	87.083083038002	53
1	491	89.751923197104	54
1	501	91.477458646119	55
1	505	92.561616266614	56
1	517	95.45020763989	57
1	529	98.503273624175	58
1	539	100.105842496027	59
1	543	101.151902144086	60
1	553	102.968117895971	61
1	563	104.818211856265	62
1	573	106.325337209138	63
1	583	108.330453850056	64
1	593	109.416030880736	65
1	601	110.595347148151	66
1	611	112.255569293155	67
1	621	113.370067060847	68
1	631	114.745169649672	69
1	637	115.971113940698	70
1	645	117.337348588766	71
1	653	118.499763087217	72
1	663	120.158376642263	73
1	673	121.906316701172	74
1	683	123.305073822066	75
1	693	124.644637092224	76
1	701	126.447891400598	77
1	709	128.40951806556	78
1	717	130.333405916744	79
1	727	132.082218902297	80
1	737	133.611320515896	81
1	747	134.789454803522	82
1	757	136.177184972368	83
1	767	137.444654379831	84
1	773	138.776671872364	85
1	783	140.623105526	86
1	793	141.676079760806	87
1	807	146.012005927566	88
1	817	147.133649765193	89
1	827	148.707365786008	90
1	837	149.930757055201	91
1	847	151.812444206199	92
1	857	152.864653207208	93
1	861	154.723990873392	94
1	865	155.915402603507	95
1	875	157.022912148922	96
1	885	158.254045811108	97
1	895	159.298899403637	98
1	905	160.658905074031	99
1	915	162.630407571557	100
1	921	164.27371676476	101
1	931	166.032979251432	102
1	941	167.11600635609	103
1	951	168.52208078866	104
1	961	169.964329747054	105
1	971	171.179981446895	106
1	977	172.69103943511	107
1	987	174.632026682205	108
1	997	176.665283213302	109
1	1007	178.450415305463	110
1	1017	179.509189250259	111
1	1029	182.789459843872	112
1	1037	186.398938212313	113
1	1049	189.736808860311	114
1	1055	191.013991814422	115
1	1065	192.789722308732	116
1	1075	194.520257028271	117
1	1079	196.343995700617	118
1	1085	199.969984296346	119
2	5	0.234984622813	0
2	19	3.289193090482	1
2	29	4.968480238442	2
2	41	7.945118670372	3
2	55	11.04055125721	4
2	65	12.105294087341	5
2	75	13.960335672557	6
2	85	15.169740540727	7
2	95	16.803699169004	8
2	105	18.285486364592	9
2	115	20.228726052357	10
2	125	21.909349478724	11
2	139	24.937943704288	12
2	153	27.127585790741	13
2	165	30.103989544876	14
2	175	31.63024340127	15
2	185	33.467021899103	16
2	195	34.695940563401	17
2	205	36.640000597222	18
2	217	39.67252320873	19
2	227	41.594175034187	20
2	237	43.079020779712	21
2	247	44.971738966201	22
2	261	49.247892695334	23
2	271	51.145853113416	24
2	279	53.790336468603	25
2	289	55.714507658562	26
2	299	57.233614527262	27
2	305	58.949966896772	28
2	313	60.279317209587	29
2	323	61.490451628897	30
2	333	63.485710010374	31
2	343	67.090774443997	32
2	353	68.817856395867	33
2	363	69.788488906813	34
2	369	70.907797839038	35
2	379	72.092057043113	36
2	389	73.485548670246	37
2	399	74.598577339108	38
2	407	75.802468835297	39
2	417	77.10710675053	40
2	427	78.340785154663	41
2	435	79.474645941685	42
2	445	80.586412428085	43
2	455	82.521913448538	44
2	465	84.316798239619	45
2	475	86.036718703317	46
2	481	87.113441183334	47
2	493	89.772793639644	48
2	507	92.580132623261	49
2	519	95.482190836001	50
2	531	98.524217539469	51
2	545	101.189014089831	52
2	555	102.980875810851	53
2	565	104.830530710571	54
2	575	106.368984493706	55
2	585	108.345222581191	56
2	595	109.43280984003	57
2	603	110.61571616053	58
2	613	112.273139259051	59
2	623	113.382471395727	60
2	633	114.772276720636	61
2	639	116.027604115094	62
2	647	117.348407500191	63
2	655	118.514835538327	64
2	665	120.182063868016	65
2	675	121.919719343387	66
2	685	123.315666878713	67
2	695	124.700155656489	68
2	703	126.471791751358	69
2	711	128.420732214149	70
2	719	130.343848366935	71
2	729	132.100727827862	72
2	739	133.636951038514	73
2	749	134.825109030728	74
2	759	136.224372957133	75
2	769	137.465693771805	76
2	775	138.789115788132	77
2	785	140.641273952073	78
2	795	141.704088527731	79
2	809	146.031580232113	80
2	819	147.152143733796	81
2	829	148.739407296615	82
2	839	149.957246015308	83
2	849	151.839060926786	84
2	867	155.925862317242	85
2	877	157.053720768672	86
2	887	158.266642898175	87
2	897	159.319599944956	88
2	907	160.671799973975	89
2	917	162.641321379726	90
2	923	164.316732592417	91
2	933	166.059052972313	92
2	943	167.129573989015	93
2	953	168.532796123705	94
2	963	169.983190711071	95
2	973	171.191192730873	96
2	979	172.710406541038	97
2	989	174.645858618584	98
2	999	176.690500910128	99
2	1009	178.460989571822	100
2	1019	179.536028803567	101
2	1031	182.854160393115	102
2	1039	186.409610285595	103
2	1051	189.749597792482	104
2	1057	191.037055444809	105
2	1067	192.811330779355	106
2	1087	199.998610141823	107
3	7	0.254376010482	0
3	21	3.299244815524	1
3	31	4.995190592743	2
3	43	7.955524602684	3
3	57	11.069100046782	4
3	67	12.115658219078	5
3	77	13.973093716217	6
3	87	15.188344300068	7
3	97	16.816614859964	8
3	107	18.296835192339	9
3	117	20.259622755195	10
3	127	21.938104516582	11
3	141	24.950395427017	12
3	155	27.167614298226	13
3	167	30.140492349653	14
3	177	31.650754233584	15
3	187	33.478974848364	16
3	197	34.71382342926	17
3	207	36.65214787632	18
3	219	39.689220857478	19
3	229	41.618167293623	20
3	239	43.091193695664	21
3	249	44.98262053106	22
3	263	49.264902492748	23
3	281	53.805606619781	24
3	291	55.747344485083	25
3	307	58.961240421279	26
3	315	60.299836169023	27
3	325	61.503520420654	28
3	335	63.509542680435	29
3	345	67.105969972689	30
3	355	68.849401701456	31
3	371	70.918720204343	32
3	381	72.148795510376	33
3	391	73.500342493202	34
3	401	74.609026502216	35
3	409	75.817999075396	36
3	419	77.129421727969	37
3	429	78.352824219562	38
3	437	79.486931415111	39
3	447	80.597472148787	40
3	457	82.533099868642	41
3	467	84.334328748375	42
3	483	87.127786126095	43
3	495	89.78665562843	44
3	509	92.595269237812	45
3	521	95.497412328046	46
3	533	98.535813308275	47
3	547	101.201472022842	48
3	557	102.997627629336	49
3	567	104.858922637241	50
3	577	106.387342667974	51
3	587	108.356425708702	52
3	597	109.482151267266	53
3	605	110.628488801104	54
3	615	112.283152826965	55
3	625	113.416420865363	56
3	641	116.039083639255	57
3	649	117.372084158074	58
3	657	118.530487585802	59
3	667	120.194307589866	60
3	677	121.943718778007	61
3	687	123.329114544629	62
3	697	124.730631213816	63
3	705	126.483169549632	64
3	713	128.441210413998	65
3	721	130.372338556304	66
3	731	132.11402106379	67
3	741	133.659726303582	68
3	751	134.841409221515	69
3	761	136.237993862176	70
3	777	138.805988588206	71
3	787	140.673991217116	72
3	797	141.715683238204	73
3	811	146.04261203711	74
3	821	147.186825617339	75
3	831	148.750000676514	76
3	841	149.970639429432	77
3	851	151.849218760783	78
3	869	155.958307905313	79
3	879	157.074738972228	80
3	889	158.291353590476	81
3	899	159.344538409634	82
3	909	160.682449876306	83
3	925	164.331525373825	84
3	935	166.078384505546	85
3	945	167.144425249185	86
3	955	168.578399946167	87
3	965	169.996589209758	88
3	981	172.751007734148	89
3	991	174.659770710408	90
3	1001	176.735921561507	91
3	1011	178.474098337405	92
3	1021	179.546928238117	93
3	1041	186.43390323929	94
3	1059	191.064545478308	95
3	1069	192.835990228657	96
4	9	0.273478008816	0
4	23	3.317739469077	1
4	45	7.9945295227	2
4	59	11.105023160526	3
4	69	12.128255810398	4
4	79	13.987799649188	5
4	89	15.202677911846	6
4	99	16.827100519555	7
4	109	18.307622447161	8
4	119	20.281601522919	9
4	129	21.961326118734	10
4	143	24.97684693528	11
4	157	27.182183508734	12
4	169	30.151872740266	13
4	179	31.68844681316	14
4	189	33.490635727767	15
4	199	34.728461357748	16
4	209	36.662177185184	17
4	221	39.699260143518	18
4	231	41.642246944192	19
4	241	43.109436931185	20
4	265	49.284442923655	21
4	283	53.832258087911	22
4	293	55.758843204544	23
4	317	60.313509435353	24
4	327	61.519008568012	25
4	347	67.146329354881	26
4	357	68.859603140381	27
4	373	70.933465864813	28
4	383	72.172548992988	29
4	393	73.539799946826	30
4	411	75.842090582856	31
4	421	77.139679026913	32
4	439	79.500396691992	33
4	449	80.613202191521	34
4	459	82.551091063585	35
4	469	84.349656752196	36
4	485	87.139591299249	37
4	497	89.803684772734	38
4	511	92.62126877032	39
4	523	95.52744413225	40
4	535	98.555504140041	41
4	549	101.214549724081	42
4	559	103.021123015881	43
4	569	104.887643197793	44
4	579	106.42555749581	45
4	589	108.366931536543	46
4	607	110.64878729872	47
4	617	112.300906126246	48
4	627	113.445014546016	49
4	659	118.560755665181	50
4	669	120.253913488191	51
4	679	121.961816492904	52
4	689	123.341920707965	53
4	723	130.397643616957	54
4	733	132.130015707771	55
4	743	133.676481489949	56
4	753	134.856727448111	57
4	763	136.269283309597	58
4	779	138.819900084068	59
4	789	140.702800108923	60
4	799	141.741150121817	61
4	813	146.063395965456	62
4	823	147.197468578244	63
4	833	148.770657319356	64
4	843	150.000209464902	65
4	853	151.862187138324	66
4	871	155.973339538163	67
4	881	157.104629887937	68
4	891	158.302640007963	69
4	901	159.355044420295	70
4	911	160.701352363596	71
4	927	164.344295561803	72
4	937	166.124501534585	73
4	947	167.164142829998	74
4	957	168.590548388564	75
4	967	170.01127372782	76
4	983	172.787833181661	77
4	993	174.673345352225	78
4	1003	176.752314859259	79
4	1013	178.486939140932	80
4	1023	179.57527982273	81
4	1043	186.459526562671	82
4	1061	191.081362936384	83
4	1071	192.858111324788	84
5	10	0.283478008816	0
5	24	3.327739469077	1
5	46	8.0045295227	2
5	60	11.115023160526	3
5	70	12.138255810398	4
5	80	13.997799649188	5
5	90	15.212677911846	6
5	100	16.837100519555	7
5	110	18.317622447161	8
5	120	20.291601522919	9
5	130	21.971326118734	10
5	144	24.98684693528	11
5	158	27.192183508734	12
5	170	30.161872740266	13
5	180	31.69844681316	14
5	190	33.500635727767	15
5	200	34.738461357748	16
5	210	36.672177185184	17
5	232	41.652246944192	18
5	242	43.119436931185	19
5	266	49.294442923655	20
5	284	53.842258087911	21
5	294	55.768843204544	22
5	318	60.323509435353	23
5	328	61.529008568012	24
5	348	67.156329354881	25
5	358	68.869603140381	26
5	374	70.943465864813	27
5	384	72.182548992988	28
5	394	73.549799946826	29
5	412	75.852090582856	30
5	422	77.149679026913	31
5	440	79.510396691992	32
5	450	80.623202191521	33
5	460	82.561091063585	34
5	470	84.359656752196	35
5	486	87.149591299249	36
5	498	89.813684772734	37
5	512	92.63126877032	38
5	524	95.53744413225	39
5	536	98.565504140041	40
5	550	101.224549724081	41
5	560	103.031123015881	42
5	570	104.897643197793	43
5	580	106.43555749581	44
5	590	108.376931536543	45
5	608	110.65878729872	46
5	618	112.310906126246	47
5	660	118.570755665181	48
5	670	120.263913488191	49
5	690	123.351920707965	50
5	724	130.407643616957	51
5	734	132.140015707771	52
5	744	133.686481489949	53
5	754	134.866727448111	54
5	764	136.279283309597	55
5	780	138.829900084068	56
5	790	140.712800108923	57
5	800	141.751150121817	58
5	814	146.073395965456	59
5	824	147.207468578244	60
5	834	148.780657319356	61
5	844	150.010209464902	62
5	854	151.872187138324	63
5	872	155.983339538163	64
5	882	157.114629887937	65
5	892	158.312640007963	66
5	902	159.365044420295	67
5	912	160.711352363596	68
5	928	164.354295561803	69
5	938	166.134501534585	70
5	948	167.174142829998	71
5	958	168.600548388564	72
5	968	170.02127372782	73
5	984	172.797833181661	74
5	994	174.683345352225	75
5	1004	176.762314859259	76
5	1014	178.496939140932	77
5	1024	179.58527982273	78
5	1044	186.469526562671	79
5	1072	192.868111324788	80

