version 2
run General-1-20231004-17:50:13-8288
attr configname General
attr datetime 20231004-17:50:13
attr experiment General
attr inifile omnetpp.ini
attr iterationvars ""
attr iterationvarsf ""
attr measurement ""
attr network Multihop
attr processid 8288
attr repetition 1
attr replication #1
attr resultdir results
attr runnumber 1
attr seedset 1
param Multihop.node[*].transmissionTime "uniform(1s, 2s)"
param Multihop.node[*].delayTime "uniform(0.01s, 0.2s)"
param Multihop.node[*].processingTime exponential(0.01s)
param Multihop.node[*].lossProbability 0.1

vector 0 Multihop.node[0] txVector ETV
vector 1 Multihop.node[1] txVector ETV
vector 2 Multihop.node[2] txVector ETV
vector 3 Multihop.node[3] txVector ETV
vector 4 Multihop.node[4] txVector ETV
vector 5 Multihop.node[5] rxVector ETV
0	1	0.089234179703	0
0	5	2.086418987836	1
0	11	3.214543435608	2
0	21	4.611124161749	3
0	29	5.92439767474	4
0	39	7.458811581951	5
0	49	9.237200817444	6
0	53	11.102221062758	7
0	55	12.931824427449	8
0	61	14.204874404824	9
0	71	15.797939921614	10
0	77	16.940060054535	11
0	87	17.974231364556	12
0	97	19.196355912952	13
0	101	20.315846386716	14
0	111	21.399469392026	15
0	121	22.965381420568	16
0	129	24.498829913443	17
0	139	26.264315020643	18
0	149	28.147440492293	19
0	159	29.685865186971	20
0	169	30.812180067763	21
0	179	32.168711784646	22
0	189	33.242503795657	23
0	197	34.622307085782	24
0	207	36.395046229126	25
0	213	37.86568703421	26
0	223	39.134688083898	27
0	229	40.877452910995	28
0	239	42.107815715136	29
0	241	43.280094072107	30
0	243	44.676407360356	31
0	245	45.783772668685	32
0	255	47.293582946877	33
0	265	48.571901789517	34
0	267	49.939745030016	35
0	277	51.752740001655	36
0	285	53.504612970981	37
0	289	54.657951454981	38
0	299	56.574361328152	39
0	301	57.704130940954	40
0	311	58.998490412836	41
0	321	60.160108942422	42
0	331	61.458789185272	43
0	333	63.109909750638	44
0	343	64.149593252573	45
0	353	65.258929316304	46
0	357	66.721081831144	47
0	367	68.48532344366	48
0	377	69.841787125566	49
0	383	71.681432336918	50
0	393	73.409443977172	51
0	403	74.836254821042	52
0	413	76.039765138761	53
0	423	77.063866763958	54
0	433	78.098714488209	55
0	439	79.558259768993	56
0	449	81.030343194608	57
0	459	82.311819960246	58
0	469	84.277546765166	59
0	473	86.227590072318	60
0	483	88.180421196739	61
0	493	89.995521254022	62
0	501	91.011394233791	63
0	511	92.878911688574	64
0	521	94.088404569425	65
0	531	95.16312846227	66
0	541	96.427331766462	67
0	551	97.958999873022	68
0	561	99.643687781062	69
0	571	101.578559978748	70
0	581	103.119279517675	71
0	591	104.56308750098	72
0	595	106.335937931783	73
0	605	107.574148846905	74
0	615	109.234480743411	75
0	625	111.081503026069	76
0	635	112.3001859294	77
0	645	113.805649860178	78
0	655	115.124873652237	79
0	665	116.805313719085	80
0	671	117.8536137311	81
0	681	119.163941569275	82
0	689	120.788572049348	83
0	699	121.835890278334	84
0	709	123.421249491509	85
0	719	125.093584051004	86
0	729	126.539683556531	87
0	739	128.505730120113	88
0	743	129.963880998429	89
0	749	131.497815331791	90
0	759	132.81196185725	91
0	769	134.653371919293	92
0	777	135.878762395235	93
0	787	137.758615499942	94
0	797	138.962289828455	95
0	805	140.865891695369	96
0	815	142.430100440627	97
0	817	144.124507292986	98
0	827	145.581485200321	99
0	837	147.040008378561	100
0	843	148.696324237968	101
0	845	150.299818885393	102
0	847	151.97983803169	103
0	853	153.563797820007	104
0	863	155.522497723924	105
0	873	157.107850709345	106
0	875	159.102215505086	107
0	883	160.755905260678	108
0	887	162.364718349531	109
0	897	163.645403141036	110
0	907	164.723182014768	111
0	917	166.584371656059	112
0	927	168.223430630165	113
0	937	169.871154484917	114
0	947	171.372790714372	115
0	951	172.601395523753	116
0	957	173.906967137819	117
0	967	175.050909984037	118
0	975	176.317997534638	119
0	985	178.212694143289	120
0	995	179.374632042711	121
0	1001	180.753478935798	122
0	1011	182.160181809561	123
0	1021	184.113302813721	124
0	1025	185.591753158364	125
0	1035	186.867223345786	126
0	1045	188.450661876816	127
0	1051	189.754872702406	128
0	1053	191.465968021768	129
0	1055	192.659428592882	130
0	1065	193.727859653178	131
0	1075	195.143651768444	132
0	1077	196.472204593122	133
0	1087	198.45261642674	134
1	3	0.126198958082	0
1	7	2.165910130709	1
1	13	3.229452207186	2
1	23	4.628559058656	3
1	31	5.958927339542	4
1	41	7.481398354063	5
1	51	9.26487032963	6
1	57	12.942435133631	7
1	63	14.226011281102	8
1	73	15.823233003201	9
1	79	16.959842513351	10
1	89	17.984993310987	11
1	99	19.213796095078	12
1	103	20.350718840663	13
1	113	21.418986973278	14
1	123	23.00532637767	15
1	131	24.509293973641	16
1	141	26.282097457835	17
1	151	28.168004612429	18
1	161	29.70758361863	19
1	171	30.836155172039	20
1	181	32.194174137818	21
1	191	33.266897374911	22
1	199	34.633966803117	23
1	209	36.41951060436	24
1	215	37.893506665679	25
1	225	39.146819472504	26
1	231	40.894550709137	27
1	247	45.794850026834	28
1	257	47.306243751346	29
1	269	49.953166553419	30
1	279	51.768322889459	31
1	287	53.542289432698	32
1	291	54.683182151942	33
1	303	57.718606550635	34
1	313	59.036412075688	35
1	323	60.172395003413	36
1	335	63.136723191685	37
1	345	64.161171876847	38
1	355	65.270348031623	39
1	359	66.73347371822	40
1	369	68.496325048825	41
1	379	69.861549977882	42
1	385	71.69882920483	43
1	395	73.43248402285	44
1	405	74.846335170085	45
1	415	76.055779967999	46
1	425	77.078245261212	47
1	435	78.141238105233	48
1	441	79.569373457067	49
1	451	81.044721807332	50
1	461	82.327440586225	51
1	471	84.29130987026	52
1	475	86.240054107548	53
1	485	88.198271568111	54
1	495	90.006031145482	55
1	503	91.036819610471	56
1	513	92.894313937583	57
1	523	94.098776082885	58
1	533	95.179427882214	59
1	543	96.438726625524	60
1	553	97.972200552823	61
1	563	99.668924605201	62
1	573	101.608212794298	63
1	583	103.129474595648	64
1	593	104.58531845047	65
1	597	106.346392278176	66
1	607	107.586223746258	67
1	617	109.262730560607	68
1	627	111.097316013435	69
1	637	112.321368385443	70
1	647	113.83776973092	71
1	657	115.13657224952	72
1	667	116.838246405325	73
1	673	117.868605011966	74
1	683	119.176176397936	75
1	691	120.811422603688	76
1	701	121.88081173645	77
1	711	123.446341899435	78
1	721	125.138008199774	79
1	731	126.551953288327	80
1	741	128.537561093267	81
1	745	129.982491437915	82
1	751	131.520766657237	83
1	761	132.830070529017	84
1	771	134.673777822673	85
1	779	135.895032389222	86
1	789	137.769543412343	87
1	799	138.974768342486	88
1	807	140.877312281938	89
1	819	144.138990101253	90
1	829	145.604793120166	91
1	839	147.050121822787	92
1	849	151.998359952708	93
1	855	153.617181986256	94
1	865	155.543612632934	95
1	877	159.112596968566	96
1	885	160.767028119366	97
1	889	162.38968902792	98
1	899	163.664956165733	99
1	909	164.746859548366	100
1	919	166.601099213313	101
1	929	168.24223935107	102
1	939	169.89595242138	103
1	949	171.401273146015	104
1	953	172.618018242519	105
1	959	173.920617064222	106
1	969	175.082141282942	107
1	977	176.330285165834	108
1	987	178.252448934083	109
1	997	179.394873732983	110
1	1003	180.767885871185	111
1	1013	182.172006791107	112
1	1023	184.128396969869	113
1	1027	185.602283382405	114
1	1037	186.903551449621	115
1	1047	188.475106364833	116
1	1057	192.690602602148	117
1	1067	193.74003986464	118
1	1079	196.496971046385	119
1	1089	198.466472631521	120
2	9	2.178603170286	0
2	15	3.250531140644	1
2	25	4.644419093301	2
2	33	5.975037571652	3
2	43	7.507631567655	4
2	59	12.96353777394	5
2	65	14.241317957563	6
2	75	15.838552454746	7
2	81	16.980649325251	8
2	91	18.001327736566	9
2	105	20.384848241244	10
2	115	21.460345117474	11
2	125	23.022119995907	12
2	133	24.520801808595	13
2	143	26.298039171164	14
2	153	28.182487206383	15
2	163	29.72801774276	16
2	173	30.867470256357	17
2	183	32.204836255174	18
2	193	33.29166372381	19
2	201	34.652609336145	20
2	211	36.435810313079	21
2	217	37.911521229152	22
2	227	39.16306149708	23
2	233	40.906889826194	24
2	249	45.808256887515	25
2	259	47.317203976524	26
2	271	49.975803484341	27
2	281	51.783915740052	28
2	293	54.702761849096	29
2	305	57.731817493635	30
2	315	59.051050444839	31
2	325	60.222434541686	32
2	337	63.161102148194	33
2	347	64.178280686609	34
2	361	66.744245319918	35
2	371	68.507871291824	36
2	381	69.875473258174	37
2	387	71.722178051133	38
2	397	73.456603648345	39
2	407	74.882419578004	40
2	417	76.082300225572	41
2	427	77.089063002939	42
2	437	78.155305542793	43
2	443	79.586366637073	44
2	453	81.077382434488	45
2	463	82.341691477961	46
2	477	86.252913612605	47
2	487	88.210394349431	48
2	497	90.021129661321	49
2	505	91.049759331904	50
2	515	92.908586291535	51
2	525	94.124354022144	52
2	535	95.193887881685	53
2	545	96.456969644294	54
2	555	97.982301053428	55
2	565	99.686214296896	56
2	575	101.620259868541	57
2	585	103.140168439959	58
2	599	106.359694234415	59
2	609	107.603611188669	60
2	619	109.274230421487	61
2	629	111.113860629214	62
2	639	112.331938950684	63
2	649	113.863394010995	64
2	659	115.153713118318	65
2	669	116.860810637305	66
2	675	117.879447350487	67
2	685	119.195987666634	68
2	693	120.83566264908	69
2	703	121.894434046061	70
2	713	123.463529866844	71
2	723	125.152464202911	72
2	733	126.611326998404	73
2	747	130.017440801356	74
2	753	131.547126316079	75
2	763	132.843216010451	76
2	773	134.709177819982	77
2	781	135.917941508189	78
2	791	137.781354910461	79
2	801	138.998167450269	80
2	809	140.891965829239	81
2	821	144.165918704377	82
2	831	145.638832318314	83
2	841	147.073415433213	84
2	851	152.012838734365	85
2	857	153.632078099187	86
2	867	155.554514687234	87
2	879	159.135294155247	88
2	891	162.421776907044	89
2	901	163.693145655558	90
2	911	164.759932266239	91
2	921	166.63311528232	92
2	931	168.255546399126	93
2	941	169.90727951058	94
2	955	172.638517994953	95
2	961	173.952413702345	96
2	971	175.099032502017	97
2	979	176.357411210732	98
2	989	178.26306182894	99
2	999	179.40624117851	100
2	1005	180.779524670185	101
2	1015	182.18779434665	102
2	1029	185.613776676183	103
2	1039	186.914690573561	104
2	1049	188.494966041118	105
2	1059	192.704457005304	106
2	1069	193.751855424897	107
2	1081	196.509319823112	108
3	17	3.287948100801	0
3	27	4.6570272518	1
3	35	5.990671023965	2
3	45	7.518605500046	3
3	67	14.25351882601	4
3	83	16.994194602025	5
3	93	18.012338901453	6
3	107	20.398399718221	7
3	117	21.473369406639	8
3	127	23.039898346862	9
3	135	24.546523402283	10
3	145	26.330308000024	11
3	155	28.200950389569	12
3	165	29.742386357705	13
3	175	30.877587634494	14
3	185	32.219226117787	15
3	195	33.305249927883	16
3	203	34.662699824273	17
3	219	37.922247812406	18
3	235	40.917395438089	19
3	251	45.82089339846	20
3	261	47.33564522753	21
3	273	49.995295448955	22
3	283	51.798408412464	23
3	295	54.713128483086	24
3	307	57.742585969288	25
3	317	59.061563568148	26
3	327	60.254785788732	27
3	339	63.177177027316	28
3	349	64.190709689416	29
3	363	66.755248156879	30
3	373	68.544609653437	31
3	389	71.733986151484	32
3	399	73.471672171572	33
3	409	74.895908226748	34
3	419	76.096894849077	35
3	429	77.110878112585	36
3	445	79.618055037135	37
3	455	81.090146416066	38
3	465	82.360296907975	39
3	479	86.282850053579	40
3	489	88.229282076335	41
3	499	90.039731222222	42
3	507	91.060617687952	43
3	517	92.930622154668	44
3	527	94.157432867961	45
3	537	95.206635114139	46
3	547	96.468806839214	47
3	557	97.994783953041	48
3	567	99.696380294712	49
3	577	101.631132306364	50
3	587	103.166869426971	51
3	601	106.389725681351	52
3	611	107.637032690648	53
3	621	109.292002332479	54
3	631	111.127914544903	55
3	641	112.343653712039	56
3	651	113.875846614578	57
3	661	115.207995648457	58
3	677	117.893787868579	59
3	687	119.209865664738	60
3	695	120.850876532901	61
3	705	121.90819925734	62
3	715	123.483081870039	63
3	725	125.170539287136	64
3	735	126.632091592223	65
3	755	131.563666790954	66
3	765	132.859885790697	67
3	775	134.721415191772	68
3	783	135.931549360856	69
3	793	137.798346493221	70
3	803	139.011148854554	71
3	811	140.902830731221	72
3	823	144.176387644953	73
3	833	145.652081388557	74
3	859	153.660167969683	75
3	869	155.612133592589	76
3	881	159.15694539804	77
3	893	162.438922644159	78
3	903	163.715053108769	79
3	913	164.85366831069	80
3	923	166.663870595557	81
3	933	168.313406132851	82
3	943	169.942664846074	83
3	963	173.984203397732	84
3	973	175.113088742188	85
3	981	176.385664653593	86
3	991	178.294821307884	87
3	1007	180.808936995681	88
3	1017	182.199542838758	89
3	1031	185.638856253596	90
3	1041	186.930717138046	91
3	1061	192.723732544692	92
3	1071	193.771658574205	93
3	1083	196.528121393238	94
4	19	3.31667633747	0
4	37	6.028660810078	1
4	47	7.535906777097	2
4	69	14.266938514175	3
4	85	17.010102936052	4
4	95	18.045707579452	5
4	109	20.417179776724	6
4	119	21.485996250275	7
4	137	24.556825946733	8
4	147	26.345049471565	9
4	157	28.221106984096	10
4	167	29.76679314756	11
4	177	30.894481359021	12
4	187	32.257671167466	13
4	205	34.685045605747	14
4	221	37.938643403405	15
4	237	40.934711446977	16
4	253	45.865210353731	17
4	263	47.351056813693	18
4	275	50.010862570944	19
4	297	54.733751010067	20
4	309	57.754236333271	21
4	319	59.08507112453	22
4	329	60.279029855668	23
4	341	63.194766189422	24
4	351	64.225532035975	25
4	365	66.767017981366	26
4	375	68.563203659898	27
4	391	71.755603535125	28
4	401	73.507601559947	29
4	411	74.907734862011	30
4	421	76.116290621486	31
4	431	77.121006054222	32
4	447	79.635698834219	33
4	457	81.10038815549	34
4	467	82.371649678939	35
4	481	86.295532356185	36
4	491	88.239775415807	37
4	509	91.072334543113	38
4	519	92.952579208598	39
4	529	94.167479610161	40
4	539	95.216869527582	41
4	549	96.484272658445	42
4	559	98.005108732686	43
4	569	99.709929919165	44
4	579	101.641585128727	45
4	589	103.186983428162	46
4	603	106.400485028794	47
4	613	107.65347917052	48
4	623	109.308296271815	49
4	633	111.138004071258	50
4	643	112.362945021095	51
4	653	113.888080662873	52
4	663	115.219558583775	53
4	679	117.903798006515	54
4	697	120.873061816066	55
4	707	121.920767057175	56
4	717	123.493549235036	57
4	727	125.185838597008	58
4	737	126.658650455557	59
4	757	131.580352787913	60
4	767	132.873113301332	61
4	785	135.94826336062	62
4	795	137.823838438959	63
4	813	140.919877388285	64
4	825	144.191295061407	65
4	835	145.679106156682	66
4	861	153.710421209079	67
4	871	155.637252176959	68
4	895	162.461500175829	69
4	905	163.733151252588	70
4	915	164.872195178705	71
4	925	166.692695535601	72
4	935	168.33948358596	73
4	945	169.953123574494	74
4	965	174.001443929836	75
4	983	176.403062766359	76
4	993	178.313362550816	77
4	1009	180.820012932919	78
4	1019	182.230684971501	79
4	1033	185.650817051553	80
4	1043	186.942413076984	81
4	1063	192.764790286853	82
4	1073	193.782237976719	83
4	1085	196.543915794381	84
5	20	3.32667633747	0
5	38	6.038660810078	1
5	48	7.545906777097	2
5	70	14.276938514175	3
5	86	17.020102936052	4
5	96	18.055707579452	5
5	120	21.495996250275	6
5	138	24.566825946733	7
5	148	26.355049471565	8
5	158	28.231106984096	9
5	168	29.77679314756	10
5	178	30.904481359021	11
5	188	32.267671167466	12
5	206	34.695045605747	13
5	222	37.948643403405	14
5	238	40.944711446977	15
5	254	45.875210353731	16
5	264	47.361056813693	17
5	276	50.020862570944	18
5	310	57.764236333271	19
5	320	59.09507112453	20
5	342	63.204766189422	21
5	352	64.235532035975	22
5	376	68.573203659898	23
5	402	73.517601559947	24
5	412	74.917734862011	25
5	422	76.126290621486	26
5	448	79.645698834219	27
5	458	81.11038815549	28
5	468	82.381649678939	29
5	482	86.305532356185	30
5	510	91.082334543113	31
5	520	92.962579208598	32
5	530	94.177479610161	33
5	540	95.226869527582	34
5	550	96.494272658445	35
5	560	98.015108732686	36
5	570	99.719929919165	37
5	580	101.651585128727	38
5	604	106.410485028794	39
5	614	107.66347917052	40
5	624	109.318296271815	41
5	634	111.148004071258	42
5	644	112.372945021095	43
5	654	113.898080662873	44
5	664	115.229558583775	45
5	680	117.913798006515	46
5	708	121.930767057175	47
5	718	123.503549235036	48
5	728	125.195838597008	49
5	738	126.668650455557	50
5	758	131.590352787913	51
5	768	132.883113301332	52
5	796	137.833838438959	53
5	814	140.929877388285	54
5	826	144.201295061407	55
5	836	145.689106156682	56
5	862	153.720421209079	57
5	872	155.647252176959	58
5	896	162.471500175829	59
5	906	163.743151252588	60
5	916	164.882195178705	61
5	926	166.702695535601	62
5	936	168.34948358596	63
5	946	169.963123574494	64
5	966	174.011443929836	65
5	984	176.413062766359	66
5	994	178.323362550816	67
5	1010	180.830012932919	68
5	1020	182.240684971501	69
5	1034	185.660817051553	70
5	1044	186.952413076984	71
5	1064	192.774790286853	72
5	1074	193.792237976719	73
5	1086	196.553915794381	74

