version 2
run General-3-20231004-17:50:13-8288
attr configname General
attr datetime 20231004-17:50:13
attr experiment General
attr inifile omnetpp.ini
attr iterationvars ""
attr iterationvarsf ""
attr measurement ""
attr network Multihop
attr processid 8288
attr repetition 3
attr replication #3
attr resultdir results
attr runnumber 3
attr seedset 3
param Multihop.node[*].transmissionTime "uniform(1s, 2s)"
param Multihop.node[*].delayTime "uniform(0.01s, 0.2s)"
param Multihop.node[*].processingTime exponential(0.01s)
param Multihop.node[*].lossProbability 0.1

vector 0 Multihop.node[0] txVector ETV
vector 1 Multihop.node[1] txVector ETV
vector 2 Multihop.node[2] txVector ETV
vector 3 Multihop.node[3] txVector ETV
vector 4 Multihop.node[4] txVector ETV
vector 5 Multihop.node[5] rxVector ETV
0	1	0.114651601831	0
0	11	1.185376482154	1
0	17	2.20412449243	2
0	21	3.297675988008	3
0	31	4.443046135432	4
0	33	6.356347588194	5
0	43	8.122173962719	6
0	53	9.708793934738	7
0	63	10.966379226489	8
0	71	12.291685403628	9
0	81	13.705404087273	10
0	91	15.268174183625	11
0	101	16.93086044963	12
0	107	18.691438939958	13
0	117	20.384072687081	14
0	127	22.192434920068	15
0	133	24.018562994734	16
0	143	25.320826608291	17
0	151	26.346852874918	18
0	153	28.272585659357	19
0	163	29.549908708384	20
0	173	30.666125298779	21
0	183	32.192236298298	22
0	193	33.99283980911	23
0	203	35.276247181067	24
0	213	36.479124829242	25
0	223	37.981655045481	26
0	229	39.484910335693	27
0	239	41.094556050444	28
0	249	42.351762428483	29
0	257	43.498078650864	30
0	259	44.989894199021	31
0	261	46.119552583037	32
0	271	47.979606045945	33
0	279	49.137275801342	34
0	289	50.834025789121	35
0	299	52.141709517291	36
0	309	53.680173209006	37
0	319	55.383912909146	38
0	329	57.203454992802	39
0	335	58.441891290548	40
0	345	60.370390137027	41
0	351	61.601851167691	42
0	361	63.384235146756	43
0	371	64.823237847372	44
0	373	65.962414360673	45
0	375	66.98451017502	46
0	385	68.2068864946	47
0	391	69.723172246779	48
0	395	71.526000216904	49
0	401	72.887083991964	50
0	403	74.170773441738	51
0	407	75.38366777736	52
0	417	76.509488817139	53
0	427	77.802843330961	54
0	437	79.394369335912	55
0	439	80.669006805468	56
0	449	82.610921168999	57
0	455	84.03354558658	58
0	465	85.214285915551	59
0	475	86.848589385228	60
0	485	88.380052515605	61
0	489	89.706316520992	62
0	495	90.80689423375	63
0	505	91.877263993092	64
0	515	93.721710972788	65
0	517	95.127988157861	66
0	527	96.98460631638	67
0	537	98.619379535384	68
0	547	99.672354555755	69
0	557	101.346684930912	70
0	567	102.778203155446	71
0	577	104.674612141979	72
0	587	105.731312279656	73
0	591	107.279640296541	74
0	601	108.912600829799	75
0	603	110.509505441945	76
0	613	112.492310212526	77
0	623	113.907909423179	78
0	631	115.320340489569	79
0	641	116.948365974772	80
0	651	118.555709709014	81
0	661	120.452870554823	82
0	667	121.46272737912	83
0	673	122.955578700938	84
0	683	124.030303609158	85
0	689	125.563182444378	86
0	699	126.972755674572	87
0	701	128.864179348407	88
0	711	130.719727550002	89
0	715	131.770692970904	90
0	725	133.552595938391	91
0	735	134.773269591921	92
0	741	136.541019115665	93
0	751	137.843878669732	94
0	761	139.270443931988	95
0	765	140.75970792358	96
0	775	141.787345531231	97
0	785	143.676159558187	98
0	787	145.388213990557	99
0	797	146.76327610628	100
0	807	147.807391326942	101
0	817	148.961721781709	102
0	827	150.72226367851	103
0	837	151.811856140217	104
0	847	153.510785530621	105
0	849	155.434652252655	106
0	857	156.474446405723	107
0	867	158.4236834306	108
0	877	160.383248730396	109
0	887	161.929164181064	110
0	893	163.590396647175	111
0	903	165.433145183903	112
0	913	166.729740603893	113
0	923	168.361230560877	114
0	931	169.421591417464	115
0	941	171.359829841946	116
0	951	172.811594826468	117
0	961	174.620306869103	118
0	971	176.355048559672	119
0	977	177.810978884875	120
0	987	179.285935730274	121
0	997	180.778433165812	122
0	1007	182.61211868452	123
0	1017	184.387432324766	124
0	1021	185.490687890277	125
0	1031	187.167961146516	126
0	1037	188.319855985531	127
0	1047	189.989878320202	128
0	1057	191.649533877216	129
0	1059	192.806275131946	130
0	1069	194.087524115175	131
0	1079	195.3280537029	132
0	1089	196.734776393112	133
0	1099	198.393555647528	134
0	1109	199.796421171699	135
1	3	0.14297423212	0
1	13	1.195791274441	1
1	19	2.225993147392	2
1	23	3.31371220317	3
1	35	6.40270980211	4
1	45	8.135388697056	5
1	55	9.741149285741	6
1	65	10.992930338857	7
1	73	12.317156539246	8
1	83	13.729193598629	9
1	93	15.298659199253	10
1	103	16.941519388574	11
1	109	18.707343048942	12
1	119	20.397874821408	13
1	129	22.209808091484	14
1	135	24.045014820571	15
1	145	25.337870187312	16
1	155	28.284522260702	17
1	165	29.560807963286	18
1	175	30.681654455754	19
1	185	32.206542977092	20
1	195	34.024202759995	21
1	205	35.318028415465	22
1	215	36.491016634292	23
1	225	38.000146919723	24
1	231	39.496195687411	25
1	241	41.107794554381	26
1	251	42.415673719849	27
1	263	46.132016677975	28
1	273	47.995967402256	29
1	281	49.161075255711	30
1	291	50.852258034964	31
1	301	52.162195553351	32
1	311	53.701532707654	33
1	321	55.397515412304	34
1	331	57.225417210825	35
1	337	58.456402344336	36
1	347	60.386252593776	37
1	353	61.627638425229	38
1	363	63.413492443335	39
1	377	66.998922326271	40
1	387	68.221482755469	41
1	393	69.756275476822	42
1	397	71.557547444213	43
1	405	74.186225309303	44
1	409	75.443177616431	45
1	419	76.525545892075	46
1	429	77.814174322965	47
1	441	80.682247056541	48
1	451	82.634020412772	49
1	457	84.05716470352	50
1	467	85.238583829173	51
1	477	86.860556091375	52
1	487	88.398821535468	53
1	491	89.723286533841	54
1	497	90.835151745159	55
1	507	91.896870198114	56
1	519	95.153900504653	57
1	529	96.998766509589	58
1	539	98.646322374397	59
1	549	99.706253213935	60
1	559	101.381263345951	61
1	569	102.801793978145	62
1	579	104.69237465079	63
1	589	105.759779161339	64
1	593	107.305303637715	65
1	605	110.529100444546	66
1	615	112.510775498245	67
1	625	113.951940479798	68
1	633	115.33559294456	69
1	643	116.989606895376	70
1	653	118.577159415505	71
1	663	120.463737819626	72
1	669	121.482905917763	73
1	675	122.970624853347	74
1	685	124.048038623904	75
1	691	125.582365336201	76
1	703	128.878157835566	77
1	713	130.760837718352	78
1	717	131.788452841671	79
1	727	133.581641614513	80
1	737	134.783897005645	81
1	743	136.551397556598	82
1	753	137.861291220733	83
1	763	139.283840349772	84
1	767	140.770794749545	85
1	777	141.809481642543	86
1	789	145.406511033435	87
1	799	146.780459188943	88
1	809	147.825274779045	89
1	819	148.975529742651	90
1	829	150.734206851976	91
1	839	151.836202008697	92
1	851	155.466609339087	93
1	859	156.487582981331	94
1	869	158.44181175278	95
1	879	160.400207456829	96
1	889	161.947809772506	97
1	895	163.606350566636	98
1	905	165.453244538162	99
1	915	166.75118586309	100
1	925	168.390822789575	101
1	933	169.435123817913	102
1	943	171.384260907282	103
1	953	172.82444630618	104
1	963	174.651705707954	105
1	973	176.37010527671	106
1	979	177.841153565353	107
1	989	179.299068830883	108
1	999	180.79415021461	109
1	1009	182.62535493203	110
1	1019	184.402999250795	111
1	1023	185.50645991054	112
1	1033	187.179973100167	113
1	1039	188.335619139698	114
1	1049	190.005054895536	115
1	1061	192.818846281187	116
1	1071	194.106810731902	117
1	1081	195.33986593703	118
1	1091	196.751586654836	119
1	1101	198.412822833704	120
2	5	0.154267674735	0
2	15	1.208639978752	1
2	25	3.326140271961	2
2	37	6.417857479988	3
2	47	8.151451197515	4
2	57	9.763822744464	5
2	67	11.008021791822	6
2	75	12.339659001797	7
2	85	13.748600039041	8
2	95	15.325331339758	9
2	105	16.969910488344	10
2	111	18.721842556665	11
2	121	20.426440175691	12
2	131	22.221346591109	13
2	137	24.058864022181	14
2	147	25.372884209569	15
2	157	28.340879780018	16
2	167	29.581762873164	17
2	177	30.708790265714	18
2	187	32.231359524588	19
2	197	34.042085751294	20
2	207	35.34255928727	21
2	217	36.50456065036	22
2	227	38.014338801933	23
2	233	39.506592643887	24
2	243	41.120694622247	25
2	253	42.430070079604	26
2	265	46.159408237791	27
2	275	48.018257966998	28
2	283	49.188059879452	29
2	293	50.887497888564	30
2	303	52.175905634161	31
2	313	53.721298520238	32
2	323	55.408635031819	33
2	333	57.235675804451	34
2	339	58.482499590228	35
2	349	60.406554889216	36
2	355	61.642433776266	37
2	365	63.458369533114	38
2	379	67.024189738052	39
2	389	68.234526662313	40
2	399	71.571202111807	41
2	411	75.458861003754	42
2	421	76.540623144943	43
2	431	77.824488498975	44
2	443	80.693035196721	45
2	453	82.653570454369	46
2	459	84.071713594587	47
2	469	85.258746400765	48
2	479	86.885215256243	49
2	493	89.749430849136	50
2	499	90.856872487584	51
2	509	91.958936748662	52
2	521	95.165018108599	53
2	531	97.010889575567	54
2	541	98.673651633921	55
2	551	99.728838056456	56
2	561	101.40570911855	57
2	571	102.817210655495	58
2	581	104.72227077683	59
2	595	107.315748446323	60
2	607	110.547566590101	61
2	617	112.522747825411	62
2	627	113.962495680746	63
2	635	115.34739138542	64
2	645	117.021014461488	65
2	655	118.593913692744	66
2	665	120.480773522127	67
2	671	121.501460415656	68
2	677	122.985506892587	69
2	687	124.070698083074	70
2	693	125.592728430538	71
2	705	128.889059748397	72
2	719	131.859365816566	73
2	729	133.61319024854	74
2	739	134.795749483659	75
2	745	136.625449667211	76
2	755	137.884761690687	77
2	769	140.786973180564	78
2	779	141.819931577045	79
2	791	145.443192817809	80
2	801	146.801430835892	81
2	811	147.86685050875	82
2	821	148.986295137499	83
2	831	150.753285659064	84
2	841	151.849061377087	85
2	853	155.478292341516	86
2	861	156.501351771369	87
2	871	158.456265399988	88
2	881	160.441030828365	89
2	891	161.961155425434	90
2	897	163.636448868272	91
2	907	165.465751765881	92
2	917	166.771584952654	93
2	927	168.411750900613	94
2	935	169.487740874953	95
2	945	171.413146268854	96
2	955	172.858470530657	97
2	965	174.672056930795	98
2	975	176.384018444785	99
2	981	177.87960015381	100
2	991	179.31200536496	101
2	1001	180.82229202335	102
2	1011	182.637010847212	103
2	1025	185.520253157401	104
2	1035	187.202337839508	105
2	1041	188.352492133402	106
2	1051	190.028290257485	107
2	1063	192.866137264085	108
2	1073	194.13737037227	109
2	1083	195.354247487567	110
2	1093	196.773096618676	111
2	1103	198.422899300237	112
3	7	0.172691372567	0
3	27	3.340508360361	1
3	39	6.43590434631	2
3	49	8.175625549774	3
3	59	9.774031043933	4
3	69	11.023550456157	5
3	77	12.349892891502	6
3	87	13.760873494325	7
3	97	15.340017381498	8
3	113	18.739101215525	9
3	123	20.443159733922	10
3	139	24.069078564636	11
3	149	25.385203103111	12
3	159	28.36267748123	13
3	169	29.595761253233	14
3	179	30.727259888928	15
3	189	32.264041038356	16
3	199	34.069689645272	17
3	209	35.354644926398	18
3	219	36.517691433178	19
3	235	39.622746270441	20
3	245	41.153496698634	21
3	255	42.447991597962	22
3	267	46.233080730058	23
3	277	48.032413211213	24
3	285	49.216880351251	25
3	295	50.898494780775	26
3	305	52.204316419513	27
3	315	53.792548021925	28
3	325	55.422008015394	29
3	341	58.505213395249	30
3	357	61.657674860749	31
3	367	63.481104592536	32
3	381	67.040157226587	33
3	413	75.478450514749	34
3	423	76.566162663114	35
3	433	77.837129435628	36
3	445	80.706242101309	37
3	461	84.096708764243	38
3	471	85.279392391615	39
3	481	86.895468693634	40
3	501	90.868198178528	41
3	511	91.973004152446	42
3	523	95.187584079126	43
3	533	97.029245476637	44
3	543	98.683884555343	45
3	553	99.754399125587	46
3	563	101.418011298108	47
3	573	102.864076912802	48
3	583	104.74124728133	49
3	597	107.328930318921	50
3	609	110.569943841102	51
3	619	112.544762666639	52
3	629	113.985312941628	53
3	637	115.361914210267	54
3	647	117.04083632038	55
3	657	118.617769456816	56
3	679	122.999641548391	57
3	695	125.60806628566	58
3	707	128.903255580392	59
3	721	131.891327626773	60
3	731	133.629751917948	61
3	747	136.645546272427	62
3	757	137.912302117645	63
3	771	140.801710879271	64
3	781	141.831627598146	65
3	793	145.467607503602	66
3	803	146.812360556191	67
3	813	147.884860972894	68
3	823	149.003822752164	69
3	833	150.77136459937	70
3	843	151.86497882793	71
3	855	155.48928477956	72
3	863	156.515304348828	73
3	873	158.467822384466	74
3	883	160.463561538476	75
3	899	163.653045650845	76
3	909	165.491473490433	77
3	919	166.782605914653	78
3	929	168.422083661519	79
3	937	169.498330329427	80
3	947	171.426283232365	81
3	957	172.875750396396	82
3	967	174.683138093521	83
3	983	177.892918749861	84
3	993	179.332339271681	85
3	1003	180.840096281913	86
3	1013	182.665271336209	87
3	1027	185.549997919362	88
3	1043	188.390536293766	89
3	1053	190.045013162077	90
3	1065	192.88663181909	91
3	1075	194.148555531311	92
3	1085	195.365575207167	93
3	1095	196.784193050919	94
3	1105	198.439607514967	95
4	9	0.188437229315	0
4	29	3.357293624649	1
4	41	6.449562377201	2
4	51	8.202639477054	3
4	61	9.785570919709	4
4	79	12.363687462893	5
4	89	13.781475996048	6
4	99	15.350799160538	7
4	115	18.755213794395	8
4	125	20.460927622186	9
4	141	24.085664974935	10
4	161	28.386626394525	11
4	171	29.610249948474	12
4	181	30.758555517012	13
4	191	32.289446237724	14
4	201	34.082351356405	15
4	211	35.370982042579	16
4	221	36.549486096566	17
4	237	39.635865304385	18
4	247	41.181529735751	19
4	269	46.290520135313	20
4	287	49.227731258487	21
4	297	50.913701839911	22
4	307	52.221181411877	23
4	317	53.804287356183	24
4	327	55.444511832495	25
4	343	58.524438760488	26
4	359	61.668791544484	27
4	369	63.496382468123	28
4	383	67.056637660123	29
4	415	75.527119699038	30
4	425	76.58577173159	31
4	435	77.847257811039	32
4	447	80.758947920425	33
4	463	84.122474729581	34
4	473	85.289397180917	35
4	483	86.906150089032	36
4	503	90.88582518637	37
4	513	92.001600829505	38
4	525	95.215296005558	39
4	535	97.039519516203	40
4	545	98.695954194292	41
4	555	99.765326616625	42
4	565	101.430648140459	43
4	575	102.910227786965	44
4	585	104.773983721661	45
4	599	107.348841597319	46
4	611	110.583822028887	47
4	621	112.560738108442	48
4	639	115.374885375938	49
4	649	117.061937081067	50
4	659	118.630511506582	51
4	681	123.017126115649	52
4	697	125.64265630505	53
4	709	128.913316334999	54
4	723	131.90219183711	55
4	733	133.642329325337	56
4	749	136.66108629111	57
4	759	137.928164034048	58
4	773	140.821336644183	59
4	783	141.842924099552	60
4	795	145.483976453853	61
4	805	146.825313738561	62
4	815	147.907353159256	63
4	825	149.015252714505	64
4	835	150.792634824758	65
4	845	151.876002533126	66
4	865	156.529201753282	67
4	875	158.48742588588	68
4	885	160.475432195685	69
4	901	163.6648319909	70
4	911	165.502814603963	71
4	921	166.796339030865	72
4	939	169.517540366444	73
4	949	171.46869041337	74
4	959	172.893102106731	75
4	969	174.705735813043	76
4	985	177.921550024735	77
4	995	179.347537189173	78
4	1005	180.87212412473	79
4	1015	182.688717484487	80
4	1029	185.573113149318	81
4	1045	188.439230242368	82
4	1055	190.068948603493	83
4	1067	192.899135368869	84
4	1077	194.181550486815	85
4	1087	195.378720249404	86
4	1097	196.819244132359	87
4	1107	198.478434493163	88
5	10	0.198437229315	0
5	30	3.367293624649	1
5	42	6.459562377201	2
5	52	8.212639477054	3
5	62	9.795570919709	4
5	80	12.373687462893	5
5	90	13.791475996048	6
5	100	15.360799160538	7
5	116	18.765213794395	8
5	126	20.470927622186	9
5	142	24.095664974935	10
5	162	28.396626394525	11
5	172	29.620249948474	12
5	182	30.768555517012	13
5	192	32.299446237724	14
5	202	34.092351356405	15
5	222	36.559486096566	16
5	248	41.191529735751	17
5	270	46.300520135313	18
5	288	49.237731258487	19
5	298	50.923701839911	20
5	308	52.231181411877	21
5	318	53.814287356183	22
5	328	55.454511832495	23
5	344	58.534438760488	24
5	360	61.678791544484	25
5	370	63.506382468123	26
5	384	67.066637660123	27
5	416	75.537119699038	28
5	426	76.59577173159	29
5	448	80.768947920425	30
5	464	84.132474729581	31
5	474	85.299397180917	32
5	504	90.89582518637	33
5	514	92.011600829505	34
5	526	95.225296005558	35
5	536	97.049519516203	36
5	556	99.775326616625	37
5	566	101.440648140459	38
5	576	102.920227786965	39
5	586	104.783983721661	40
5	600	107.358841597319	41
5	612	110.593822028887	42
5	640	115.384885375938	43
5	650	117.071937081067	44
5	660	118.640511506582	45
5	682	123.027126115649	46
5	698	125.65265630505	47
5	710	128.923316334999	48
5	724	131.91219183711	49
5	734	133.652329325337	50
5	750	136.67108629111	51
5	760	137.938164034048	52
5	774	140.831336644183	53
5	784	141.852924099552	54
5	796	145.493976453853	55
5	806	146.835313738561	56
5	816	147.917353159256	57
5	826	149.025252714505	58
5	846	151.886002533126	59
5	866	156.539201753282	60
5	876	158.49742588588	61
5	886	160.485432195685	62
5	902	163.6748319909	63
5	922	166.806339030865	64
5	940	169.527540366444	65
5	950	171.47869041337	66
5	960	172.903102106731	67
5	970	174.715735813043	68
5	986	177.931550024735	69
5	1006	180.88212412473	70
5	1030	185.583113149318	71
5	1046	188.449230242368	72
5	1056	190.078948603493	73
5	1068	192.909135368869	74
5	1078	194.191550486815	75
5	1088	195.388720249404	76
5	1098	196.829244132359	77
5	1108	198.488434493163	78

