version 2
run General-1-20231008-06:26:05-15741
attr configname General
attr datetime 20231008-06:26:05
attr experiment General
attr inifile omnetpp.ini
attr iterationvars ""
attr iterationvarsf ""
attr measurement ""
attr network Network1
attr processid 15741
attr repetition 1
attr replication #1
attr resultdir results
attr runnumber 1
attr seedset 1
param Network1.node[*].transmissionTime "uniform(1s, 2s)"
param Network1.node[*].delayTime "uniform(0.01s, 0.2s)"
param Network1.node[*].processingTime exponential(0.01s)
param Network1.node[*].lossProbability 0.5
param Reliability.node[*].transmissionTime "uniform(1s, 2s)"
param Reliability.node[*].delayTime "uniform(0.01s, 0.2s)"
param Reliability.node[*].processingTime exponential(0.01s)
param Reliability.node[*].lossProbability 0.0

vector 0 Network1.node[0] txVector ETV
vector 1 Network1.node[1] txVector ETV
vector 2 Network1.node[3] txVector ETV
vector 3 Network1.node[4] txVector ETV
vector 4 Network1.node[5] rxVector ETV
vector 5 Network1.node[2] txVector ETV
0	1	0.089234179703	0
0	7	2.086418987836	1
0	9	4.085459503231	2
0	11	5.321548479495	3
0	13	6.718129205636	4
0	15	8.106039945853	5
0	17	9.77578598622	6
0	31	11.711325058832	7
0	33	13.625287081233	8
0	51	15.082491890413	9
0	53	16.911638801105	10
0	55	18.741242165796	11
0	57	20.014292143171	12
0	75	21.073535340258	13
0	77	22.48607418535	14
0	91	23.520245495371	15
0	109	24.989484020162	16
0	111	26.573873143995	17
0	121	28.139785172537	18
0	123	29.673233665412	19
0	141	31.623171799004	20
0	143	33.163959990607	21
0	145	34.611940173551	22
0	163	36.504076042098	23
0	181	38.151825437906	24
0	191	39.93877691182	25
0	197	41.701696979	26
0	215	43.474436122344	27
0	221	45.306128711791	28
0	223	46.778603753194	29
0	229	48.521368580291	30
0	243	49.751731384432	31
0	245	50.859096692761	32
0	247	52.368906970953	33
0	257	53.47104220337	34
0	259	54.704664731051	35
0	277	55.796221171391	36
0	283	57.548094140717	37
0	285	58.909998590245	38
0	287	60.063337074245	39
0	289	62.000527400176	40
0	291	63.916937273347	41
0	293	65.698895736017	42
0	307	67.315224678839	43
0	309	68.389193676763	44
0	323	69.541330834037	45
0	341	70.745688958211	46
0	347	72.27751540451	47
0	357	73.786304143143	48
0	359	75.550545755659	49
0	369	76.763279450477	50
0	387	77.858587262106	51
0	405	79.59539872443	52
0	411	80.603401435192	53
0	421	81.770353027738	54
0	427	83.379560015981	55
0	429	84.458079985461	56
0	439	86.151265183582	57
0	441	87.623348609197	58
0	443	88.728739859422	59
0	445	90.231815769223	60
0	459	92.117505630131	61
0	461	94.083232435051	62
0	479	95.513200331598	63
0	481	97.37700213108	64
0	495	98.612270457789	65
0	513	99.661981472864	66
0	531	101.079364266365	67
0	537	102.343567570557	68
0	539	103.583785203171	69
0	541	104.606953933488	70
0	543	106.138622040048	71
0	557	107.268816758066	72
0	571	108.488683056205	73
0	589	110.029402595132	74
0	591	111.665693208694	75
0	593	113.438543639497	76
0	595	115.144225782368	77
0	613	116.38243669749	78
0	615	117.857589434951	79
0	625	119.704611717609	80
0	627	120.92329462094	81
0	629	122.364122942907	82
0	631	123.844401125915	83
0	645	125.177685431324	84
0	647	126.496909223383	85
0	653	128.38742634177	86
0	667	129.587635337028	87
0	673	131.486699336793	88
0	691	132.879639604248	89
0	709	134.603004356034	90
0	711	136.275338915529	91
0	721	138.054261157409	92
0	723	140.022273810933	93
0	741	141.381834115022	94
0	743	143.269142167996	95
0	745	144.803076501358	96
0	751	146.380355948005	97
0	769	148.106494384939	98
0	771	149.331884860881	99
0	777	150.97863877507	100
0	787	152.858491879777	101
0	793	154.06216620829	102
0	811	155.565162740769	103
0	813	156.6480182024	104
0	815	158.153744423185	105
0	817	159.848151275544	106
0	819	161.305129182879	107
0	821	162.666403895132	108
0	839	164.482411400536	109
0	841	165.493691717861	110
0	843	167.229045412857	111
0	845	168.832540060282	112
0	847	170.512559206579	113
0	849	172.096518994896	114
0	851	173.670039973809	115
0	853	175.031057444523	116
0	871	176.98975734844	117
0	889	178.769257536513	118
0	907	180.545472162665	119
0	925	182.406661803956	120
0	927	184.254451784427	121
0	945	185.902175639179	122
0	963	186.947012228081	123
0	969	188.833854152476	124
0	975	190.7141976225	125
0	989	192.608894231151	126
0	1003	193.668343306872	127
0	1005	195.024753395122	128
0	1007	196.175909433168	129
0	1025	198.03238249652	130
0	1027	199.307852683942	131
0	1045	200.359493918837	132
0	1059	201.663704744427	133
0	1077	202.983553655332	134
0	1079	204.96396548895	135
0	1081	206.73556286807	136
0	1087	207.94489530416	137
0	1089	209.558449477542	138
0	1091	210.878420915108	139
0	1101	211.990320673564	140
0	1107	213.625837835369	141
0	1109	215.496050494842	142
0	1111	216.635681749673	143
0	1121	217.653752706598	144
0	1127	219.516664428522	145
0	1145	221.491655738211	146
0	1159	223.11424431333	147
0	1177	224.361770862366	148
0	1187	226.205377352309	149
0	1189	227.387971640915	150
0	1191	228.92926421913	151
0	1193	230.20196308673	152
0	1195	231.695231353982	153
0	1197	233.429174345337	154
0	1199	234.613929766348	155
0	1217	236.534627110815	156
0	1227	238.008464214277	157
0	1229	239.076432856383	158
1	3	0.126198958082	0
1	3	0.126198958082	1
1	3	0.126198958082	2
1	19	9.804514222889	3
1	19	9.804514222889	4
1	19	9.804514222889	5
1	35	13.640920533546	6
1	35	13.640920533546	7
1	35	13.640920533546	8
1	59	20.03539478348	9
1	59	20.03539478348	10
1	59	20.03539478348	11
1	79	22.505856644166	12
1	79	22.505856644166	13
1	79	22.505856644166	14
1	93	23.531256660258	15
1	93	23.531256660258	16
1	93	23.531256660258	17
1	113	26.593390725247	18
1	113	26.593390725247	19
1	113	26.593390725247	20
1	125	29.690027283649	21
1	125	29.690027283649	22
1	125	29.690027283649	23
1	147	34.626681645092	24
1	147	34.626681645092	25
1	147	34.626681645092	26
1	165	36.518444657043	27
1	165	36.518444657043	28
1	165	36.518444657043	29
1	183	38.162487555262	30
1	183	38.162487555262	31
1	183	38.162487555262	32
1	193	39.963543260719	33
1	193	39.963543260719	34
1	193	39.963543260719	35
1	199	41.713356696335	36
1	199	41.713356696335	37
1	199	41.713356696335	38
1	217	43.492450685817	39
1	217	43.492450685817	40
1	217	43.492450685817	41
1	225	46.7907351418	42
1	225	46.7907351418	43
1	225	46.7907351418	44
1	231	48.538466378433	45
1	231	48.538466378433	46
1	231	48.538466378433	47
1	249	52.382313831634	48
1	249	52.382313831634	49
1	249	52.382313831634	50
1	261	54.723105982057	51
1	261	54.723105982057	52
1	261	54.723105982057	53
1	279	55.811804059195	54
1	279	55.811804059195	55
1	279	55.811804059195	56
1	295	65.709262370007	57
1	295	65.709262370007	58
1	295	65.709262370007	59
1	311	68.400956497431	60
1	311	68.400956497431	61
1	311	68.400956497431	62
1	325	69.59137037231	63
1	325	69.59137037231	64
1	325	69.59137037231	65
1	343	70.756846839197	66
1	343	70.756846839197	67
1	343	70.756846839197	68
1	349	72.289944407317	69
1	349	72.289944407317	70
1	349	72.289944407317	71
1	361	75.561317357357	72
1	361	75.561317357357	73
1	361	75.561317357357	74
1	371	76.774825693476	75
1	371	76.774825693476	76
1	371	76.774825693476	77
1	389	77.870395362457	78
1	389	77.870395362457	79
1	389	77.870395362457	80
1	407	79.631483132349	81
1	407	79.631483132349	82
1	407	79.631483132349	83
1	413	80.613645403414	84
1	413	80.613645403414	85
1	413	80.613645403414	86
1	423	81.780707721652	87
1	423	81.780707721652	88
1	423	81.780707721652	89
1	431	84.468207927098	90
1	431	84.468207927098	91
1	431	84.468207927098	92
1	447	90.249459566307	93
1	447	90.249459566307	94
1	447	90.249459566307	95
1	463	94.097483326787	96
1	463	94.097483326787	97
1	463	94.097483326787	98
1	483	97.403881535584	99
1	483	97.403881535584	100
1	483	97.403881535584	101
1	497	98.627368973628	102
1	497	98.627368973628	103
1	497	98.627368973628	104
1	515	99.676253826816	105
1	515	99.676253826816	106
1	515	99.676253826816	107
1	533	101.095663686309	108
1	533	101.095663686309	109
1	533	101.095663686309	110
1	545	106.156865058818	111
1	545	106.156865058818	112
1	545	106.156865058818	113
1	559	107.279141537711	114
1	559	107.279141537711	115
1	559	107.279141537711	116
1	573	108.518335871755	117
1	573	108.518335871755	118
1	573	108.518335871755	119
1	597	115.154680128761	120
1	597	115.154680128761	121
1	597	115.154680128761	122
1	617	117.885839252147	123
1	617	117.885839252147	124
1	617	117.885839252147	125
1	633	123.85449065227	126
1	633	123.85449065227	127
1	633	123.85449065227	128
1	649	126.522533503458	129
1	649	126.522533503458	130
1	649	126.522533503458	131
1	655	128.408834446156	132
1	655	128.408834446156	133
1	655	128.408834446156	134
1	669	129.610199569008	135
1	669	129.610199569008	136
1	669	129.610199569008	137
1	675	131.497541675314	138
1	675	131.497541675314	139
1	675	131.497541675314	140
1	693	132.90387964964	141
1	693	132.90387964964	142
1	693	132.90387964964	143
1	713	136.292526882938	144
1	713	136.292526882938	145
1	713	136.292526882938	146
1	725	140.040348895158	147
1	725	140.040348895158	148
1	725	140.040348895158	149
1	747	144.838025864799	150
1	747	144.838025864799	151
1	747	144.838025864799	152
1	753	146.406715606847	153
1	753	146.406715606847	154
1	753	146.406715606847	155
1	773	149.36728485819	156
1	773	149.36728485819	157
1	773	149.36728485819	158
1	779	150.994908769057	159
1	779	150.994908769057	160
1	779	150.994908769057	161
1	789	152.869419792178	162
1	789	152.869419792178	163
1	789	152.869419792178	164
1	795	154.087658154028	165
1	795	154.087658154028	166
1	795	154.087658154028	167
1	823	162.676872835708	168
1	823	162.676872835708	169
1	823	162.676872835708	170
1	855	175.084441610772	171
1	855	175.084441610772	172
1	855	175.084441610772	173
1	873	177.051544567278	174
1	873	177.051544567278	175
1	873	177.051544567278	176
1	891	178.801345415637	177
1	891	178.801345415637	178
1	891	178.801345415637	179
1	909	180.569149696263	180
1	909	180.569149696263	181
1	909	180.569149696263	182
1	929	184.273260505332	183
1	929	184.273260505332	184
1	929	184.273260505332	185
1	947	185.914771183857	186
1	947	185.914771183857	187
1	947	185.914771183857	188
1	965	186.964252760185	189
1	965	186.964252760185	190
1	965	186.964252760185	191
1	971	188.850745371551	192
1	971	188.850745371551	193
1	971	188.850745371551	194
1	977	190.726485253696	195
1	977	190.726485253696	196
1	977	190.726485253696	197
1	991	192.640653710095	198
1	991	192.640653710095	199
1	991	192.640653710095	200
1	1009	196.186985370406	201
1	1009	196.186985370406	202
1	1009	196.186985370406	203
1	1029	199.31934597772	204
1	1029	199.31934597772	205
1	1029	199.31934597772	206
1	1047	200.383938406854	207
1	1047	200.383938406854	208
1	1047	200.383938406854	209
1	1061	201.682980283815	210
1	1061	201.682980283815	211
1	1061	201.682980283815	212
1	1083	206.754364438196	213
1	1083	206.754364438196	214
1	1083	206.754364438196	215
1	1093	210.892175338068	216
1	1093	210.892175338068	217
1	1093	210.892175338068	218
1	1103	212.000698605757	219
1	1103	212.000698605757	220
1	1103	212.000698605757	221
1	1113	216.657384356227	222
1	1113	216.657384356227	223
1	1113	216.657384356227	224
1	1123	217.690673073746	225
1	1123	217.690673073746	226
1	1123	217.690673073746	227
1	1129	219.538635629289	228
1	1129	219.538635629289	229
1	1129	219.538635629289	230
1	1147	221.507782493738	231
1	1147	221.507782493738	232
1	1147	221.507782493738	233
1	1161	223.124352615619	234
1	1161	223.124352615619	235
1	1161	223.124352615619	236
1	1179	224.377748621224	237
1	1179	224.377748621224	238
1	1179	224.377748621224	239
1	1201	234.63471971521	240
1	1201	234.63471971521	241
1	1201	234.63471971521	242
1	1219	236.55125802078	243
1	1219	236.55125802078	244
1	1219	236.55125802078	245
1	1231	239.101253617926	246
1	1231	239.101253617926	247
1	1231	239.101253617926	248
2	23	9.821949119796	0
2	23	9.821949119796	1
2	23	9.821949119796	2
2	43	13.667052210459	3
2	43	13.667052210459	4
2	43	13.667052210459	5
2	71	20.077069372705	6
2	71	20.077069372705	7
2	71	20.077069372705	8
2	87	22.542158370332	9
2	87	22.542158370332	10
2	87	22.542158370332	11
2	105	23.56722370229	12
2	105	23.56722370229	13
2	105	23.56722370229	14
2	130	29.707703758593	15
2	130	29.707703758593	16
2	130	29.707703758593	17
2	155	34.662924515593	18
2	155	34.662924515593	19
2	155	34.662924515593	20
2	177	36.575069252827	21
2	177	36.575069252827	22
2	177	36.575069252827	23
2	187	38.200932604941	24
2	187	38.200932604941	25
2	187	38.200932604941	26
2	211	41.765029483194	27
2	211	41.765029483194	28
2	211	41.765029483194	29
2	235	48.548971990328	30
2	235	48.548971990328	31
2	235	48.548971990328	32
2	253	52.426630786905	33
2	253	52.426630786905	34
2	253	52.426630786905	35
2	265	54.737692160841	36
2	265	54.737692160841	37
2	265	54.737692160841	38
2	303	65.733864334432	39
2	303	65.733864334432	40
2	303	65.733864334432	41
2	319	68.443171467414	42
2	319	68.443171467414	43
2	319	68.443171467414	44
2	329	69.60155788134	45
2	329	69.60155788134	46
2	329	69.60155788134	47
2	365	75.573087181844	48
2	365	75.573087181844	49
2	365	75.573087181844	50
2	375	76.792263159719	51
2	375	76.792263159719	52
2	375	76.792263159719	53
2	401	77.920298357755	54
2	401	77.920298357755	55
2	401	77.920298357755	56
2	417	80.640165660987	57
2	417	80.640165660987	58
2	417	80.640165660987	59
2	435	84.510731544122	60
2	435	84.510731544122	61
2	435	84.510731544122	62
2	451	90.263838179031	63
2	451	90.263838179031	64
2	451	90.263838179031	65
2	475	94.148990058959	66
2	475	94.148990058959	67
2	475	94.148990058959	68
2	505	98.674987408719	69
2	505	98.674987408719	70
2	505	98.674987408719	71
2	520	99.700117641028	72
2	520	99.700117641028	73
2	520	99.700117641028	74
2	549	106.172330878049	75
2	549	106.172330878049	76
2	549	106.172330878049	77
2	563	107.300009950551	78
2	563	107.300009950551	79
2	563	107.300009950551	80
2	577	108.529208309578	81
2	577	108.529208309578	82
2	577	108.529208309578	83
2	601	115.184711575697	84
2	601	115.184711575697	85
2	601	115.184711575697	86
2	621	117.903611163139	87
2	621	117.903611163139	88
2	621	117.903611163139	89
2	641	123.883573936474	90
2	641	123.883573936474	91
2	641	123.883573936474	92
2	659	128.425975314954	93
2	659	128.425975314954	94
2	659	128.425975314954	95
2	679	131.50755181325	96
2	679	131.50755181325	97
2	679	131.50755181325	98
2	697	132.926064932805	99
2	697	132.926064932805	100
2	697	132.926064932805	101
2	729	140.084176547259	102
2	729	140.084176547259	103
2	729	140.084176547259	104
2	757	146.423401603806	105
2	757	146.423401603806	106
2	757	146.423401603806	107
2	807	154.154096202783	108
2	807	154.154096202783	109
2	807	154.154096202783	110
2	827	162.69300738588	111
2	827	162.69300738588	112
2	827	162.69300738588	113
2	859	175.112531481268	114
2	859	175.112531481268	115
2	859	175.112531481268	116
2	881	177.086515395037	117
2	881	177.086515395037	118
2	881	177.086515395037	119
2	895	178.812918484907	120
2	895	178.812918484907	121
2	895	178.812918484907	122
2	913	180.662885740714	123
2	913	180.662885740714	124
2	913	180.662885740714	125
2	933	184.331120239057	126
2	933	184.331120239057	127
2	933	184.331120239057	128
2	955	185.945585316701	129
2	955	185.945585316701	130
2	955	185.945585316701	131
2	985	190.761303071192	132
2	985	190.761303071192	133
2	985	190.761303071192	134
2	1017	196.225681179848	135
2	1017	196.225681179848	136
2	1017	196.225681179848	137
2	1041	199.403966735222	138
2	1041	199.403966735222	139
2	1041	199.403966735222	140
2	1052	200.394920899884	141
2	1052	200.394920899884	142
2	1052	200.394920899884	143
2	1069	201.74083666584	144
2	1069	201.74083666584	145
2	1069	201.74083666584	146
2	1137	219.573261839918	147
2	1137	219.573261839918	148
2	1137	219.573261839918	149
2	1155	221.552800795143	150
2	1155	221.552800795143	151
2	1155	221.552800795143	152
2	1165	223.137227698675	153
2	1165	223.137227698675	154
2	1165	223.137227698675	155
2	1213	234.680488704401	156
2	1213	234.680488704401	157
2	1213	234.680488704401	158
3	27	9.834557278295	0
3	27	9.834557278295	1
3	27	9.834557278295	2
3	47	13.679361479307	3
3	47	13.679361479307	4
3	47	13.679361479307	5
3	67	20.063062038848	6
3	67	20.063062038848	7
3	67	20.063062038848	8
3	101	23.554845848688	9
3	101	23.554845848688	10
3	101	23.554845848688	11
3	134	29.712047561652	12
3	134	29.712047561652	13
3	134	29.712047561652	14
3	159	34.67427486803	15
3	159	34.67427486803	16
3	159	34.67427486803	17
3	173	36.547178534023	18
3	173	36.547178534023	19
3	173	36.547178534023	20
3	207	41.745264825539	21
3	207	41.745264825539	22
3	207	41.745264825539	23
3	273	54.790274326472	24
3	273	54.790274326472	25
3	273	54.790274326472	26
3	337	69.622398190376	27
3	337	69.622398190376	28
3	337	69.622398190376	29
3	383	76.80531886119	30
3	383	76.80531886119	31
3	383	76.80531886119	32
3	397	77.900127278027	33
3	397	77.900127278027	34
3	397	77.900127278027	35
3	471	94.12998880284	36
3	471	94.12998880284	37
3	471	94.12998880284	38
3	491	97.435383372947	39
3	491	97.435383372947	40
3	491	97.435383372947	41
3	509	98.68670426388	42
3	509	98.68670426388	43
3	509	98.68670426388	44
3	524	99.70546438254	45
3	524	99.70546438254	46
3	524	99.70546438254	47
3	581	108.545074726484	48
3	581	108.545074726484	49
3	581	108.545074726484	50
3	605	115.20550943874	51
3	605	115.20550943874	52
3	605	115.20550943874	53
3	687	131.576719806055	54
3	687	131.576719806055	55
3	687	131.576719806055	56
3	701	132.949222494035	57
3	701	132.949222494035	58
3	701	132.949222494035	59
3	733	140.143550257336	60
3	733	140.143550257336	61
3	733	140.143550257336	62
3	762	146.442114237563	63
3	762	146.442114237563	64
3	762	146.442114237563	65
3	803	154.131738566146	66
3	803	154.131738566146	67
3	803	154.131738566146	68
3	835	162.721705773456	69
3	835	162.721705773456	70
3	835	162.721705773456	71
3	864	175.129033747286	72
3	864	175.129033747286	73
3	864	175.129033747286	74
3	882	177.096048011575	75
3	882	177.096048011575	76
3	882	177.096048011575	77
3	899	178.824996499236	78
3	899	178.824996499236	79
3	899	178.824996499236	80
3	917	180.674790449453	81
3	917	180.674790449453	82
3	917	180.674790449453	83
3	937	184.344895825547	84
3	937	184.344895825547	85
3	937	184.344895825547	86
3	959	185.959235243104	87
3	959	185.959235243104	88
3	959	185.959235243104	89
3	999	192.68184029176	90
3	999	192.68184029176	91
3	999	192.68184029176	92
3	1021	196.242190687775	93
3	1021	196.242190687775	94
3	1021	196.242190687775	95
3	1037	199.355121552386	96
3	1037	199.355121552386	97
3	1037	199.355121552386	98
3	1073	201.751416068354	99
3	1073	201.751416068354	100
3	1073	201.751416068354	101
3	1138	219.581087249272	102
3	1138	219.581087249272	103
3	1138	219.581087249272	104
3	1173	223.188577927861	105
3	1173	223.188577927861	106
3	1173	223.188577927861	107
3	1209	234.657886502166	108
3	1209	234.657886502166	109
3	1209	234.657886502166	110
4	30	9.844557278295	0
4	50	13.689361479307	1
4	104	23.564845848688	2
4	140	29.722047561652	3
4	162	34.68427486803	4
4	276	54.800274326472	5
4	386	76.81531886119	6
4	400	77.910127278027	7
4	512	98.69670426388	8
4	608	115.21550943874	9
4	690	131.586719806055	10
4	736	140.153550257336	11
4	838	162.731705773456	12
4	888	177.106048011575	13
4	902	178.834996499236	14
4	921	180.684790449453	15
4	962	185.969235243104	16
4	1144	219.591087249272	17
4	1212	234.667886502166	18
5	39	13.653128265715	0
5	39	13.653128265715	1
5	39	13.653128265715	2
5	63	20.050861170401	3
5	63	20.050861170401	4
5	63	20.050861170401	5
5	83	22.529646481777	6
5	83	22.529646481777	7
5	83	22.529646481777	8
5	97	23.544650279137	9
5	97	23.544650279137	10
5	97	23.544650279137	11
5	117	26.612289782654	12
5	117	26.612289782654	13
5	117	26.612289782654	14
5	129	29.700539726698	15
5	129	29.700539726698	16
5	129	29.700539726698	17
5	151	34.638489123376	18
5	151	34.638489123376	19
5	151	34.638489123376	20
5	169	36.531590776784	21
5	169	36.531590776784	22
5	169	36.531590776784	23
5	203	41.73084452377	24
5	203	41.73084452377	25
5	203	41.73084452377	26
5	239	48.560298975864	27
5	239	48.560298975864	28
5	239	48.560298975864	29
5	269	54.76381822376	30
5	269	54.76381822376	31
5	269	54.76381822376	32
5	299	65.719388724751	33
5	299	65.719388724751	34
5	299	65.719388724751	35
5	315	68.419663911032	36
5	315	68.419663911032	37
5	315	68.419663911032	38
5	330	69.603075781266	39
5	330	69.603075781266	40
5	330	69.603075781266	41
5	353	72.31100781488	42
5	353	72.31100781488	43
5	353	72.31100781488	44
5	376	76.795027241645	45
5	376	76.795027241645	46
5	376	76.795027241645	47
5	393	77.880535860541	48
5	393	77.880535860541	49
5	393	77.880535860541	50
5	455	90.294943950839	51
5	455	90.294943950839	52
5	455	90.294943950839	53
5	467	94.110848113113	54
5	467	94.110848113113	55
5	467	94.110848113113	56
5	487	97.41591506989	57
5	487	97.41591506989	58
5	487	97.41591506989	59
5	501	98.637372994667	60
5	501	98.637372994667	61
5	501	98.637372994667	62
5	519	99.69509286908	63
5	519	99.69509286908	64
5	519	99.69509286908	65
5	553	106.184544453125	66
5	553	106.184544453125	67
5	553	106.184544453125	68
5	567	107.312559158655	69
5	567	107.312559158655	70
5	567	107.312559158655	71
5	585	108.555269804457	72
5	585	108.555269804457	73
5	585	108.555269804457	74
5	609	115.217584338093	75
5	609	115.217584338093	76
5	609	115.217584338093	77
5	637	123.867341288096	78
5	637	123.867341288096	79
5	637	123.867341288096	80
5	663	128.449899558859	81
5	663	128.449899558859	82
5	663	128.449899558859	83
5	683	131.547470409183	84
5	683	131.547470409183	85
5	683	131.547470409183	86
5	702	132.950772077426	87
5	702	132.950772077426	88
5	702	132.950772077426	89
5	717	136.31779392123	90
5	717	136.31779392123	91
5	717	136.31779392123	92
5	737	140.164314851155	93
5	737	140.164314851155	94
5	737	140.164314851155	95
5	761	146.439233851675	96
5	761	146.439233851675	97
5	761	146.439233851675	98
5	783	151.020933602766	99
5	783	151.020933602766	100
5	783	151.020933602766	101
5	799	154.105444154847	102
5	799	154.105444154847	103
5	799	154.105444154847	104
5	831	162.707199793196	105
5	831	162.707199793196	106
5	831	162.707199793196	107
5	863	175.128511428585	108
5	863	175.128511428585	109
5	863	175.128511428585	110
5	877	177.076411211623	111
5	877	177.076411211623	112
5	877	177.076411211623	113
5	903	178.836028780765	114
5	903	178.836028780765	115
5	903	178.836028780765	116
5	918	180.675760570677	117
5	918	180.675760570677	118
5	918	180.675760570677	119
5	938	184.348748499387	120
5	938	184.348748499387	121
5	938	184.348748499387	122
5	951	185.925085564267	123
5	951	185.925085564267	124
5	951	185.925085564267	125
5	981	190.743768181822	126
5	981	190.743768181822	127
5	981	190.743768181822	128
5	995	192.669253875938	129
5	995	192.669253875938	130
5	995	192.669253875938	131
5	1013	196.21393268774	132
5	1013	196.21393268774	133
5	1013	196.21393268774	134
5	1033	199.336665190207	135
5	1033	199.336665190207	136
5	1033	199.336665190207	137
5	1051	200.394268043926	138
5	1051	200.394268043926	139
5	1051	200.394268043926	140
5	1065	201.729021105583	141
5	1065	201.729021105583	142
5	1065	201.729021105583	143
5	1097	210.943769581872	144
5	1097	210.943769581872	145
5	1097	210.943769581872	146
5	1117	216.68208763788	147
5	1117	216.68208763788	148
5	1117	216.68208763788	149
5	1133	219.554600313279	150
5	1133	219.554600313279	151
5	1133	219.554600313279	152
5	1151	221.526421838828	153
5	1151	221.526421838828	154
5	1151	221.526421838828	155
5	1169	223.162091024304	156
5	1169	223.162091024304	157
5	1169	223.162091024304	158
5	1183	224.400962870361	159
5	1183	224.400962870361	160
5	1183	224.400962870361	161
5	1205	234.645559288703	162
5	1205	234.645559288703	163
5	1205	234.645559288703	164
5	1223	236.586956944826	165
5	1223	236.586956944826	166
5	1223	236.586956944826	167

