version 2
run General-0-20230921-23:29:44-9547
attr configname General
attr datetime 20230921-23:29:44
attr experiment General
attr inifile omnetpp.ini
attr iterationvars ""
attr iterationvarsf ""
attr measurement ""
attr network Network3
attr processid 9547
attr repetition 0
attr replication #0
attr resultdir results
attr runnumber 0
attr seedset 0
param Network3.node[*].transmissionTime "uniform(1s, 2s)"
param Network3.node[*].delayTime "uniform(0.01s, 0.2s)"
param Network3.node[*].processingTime exponential(0.01s)
param Network3.node[0].lossProbability 0
param Network3.node[1].lossProbability 0.3
param Network3.node[2].lossProbability 0.3
param Network3.node[3].lossProbability "0.3 / 2"
param Network3.node[4].lossProbability "0.3 / 2"
param Network3.node[6].lossProbability "0.3 * 2"
param Network3.node[7].lossProbability "0.3 * 2"
param Network3.node[5].lossProbability "0.3 * 3"

vector 0 Network3.node[0] txVector ETV
vector 1 Network3.node[2] txVector ETV
vector 2 Network3.node[4] txVector ETV
vector 3 Network3.node[7] txVector ETV
vector 4 Network3.node[1] txVector ETV
vector 5 Network3.node[3] txVector ETV
vector 6 Network3.node[5] rxVector ETV
vector 7 Network3.node[6] txVector ETV
0	1	0.114274565438	0
0	11	1.82946393041	1
0	17	3.102120224927	2
0	21	5.027716858155	3
0	29	6.047935257275	4
0	33	7.509414620074	5
0	39	9.149335637065	6
0	41	10.622936059796	7
0	47	12.397169746301	8
0	59	13.546844610088	9
0	65	15.199984642286	10
0	73	16.563695415696	11
0	79	17.725004926864	12
0	81	19.348515032865	13
0	85	20.458890172029	14
0	93	21.65547252873	15
0	99	23.631931993952	16
0	101	24.651919666287	17
0	109	25.934726625756	18
0	111	26.998874126776	19
0	117	28.564062992419	20
0	119	30.140009487589	21
0	127	31.417728051619	22
0	133	32.815548803267	23
0	139	34.493365342571	24
0	145	36.249472034006	25
0	151	38.20222104325	26
0	157	39.969244745868	27
0	163	41.850980105419	28
0	169	43.081513128551	29
0	177	44.38308794478	30
0	179	45.681370272609	31
0	183	47.035416937043	32
0	189	49.004378703033	33
0	195	50.440243622364	34
0	201	51.539812707185	35
0	203	53.407938767766	36
0	211	54.916254218045	37
0	213	55.949476604426	38
0	219	57.646905376885	39
0	229	58.663533346338	40
0	231	59.86352987176	41
0	239	61.03451646453	42
0	241	62.818160712563	43
0	243	64.439639119275	44
0	245	66.138737196878	45
0	247	68.072951198632	46
0	253	69.752041816788	47
0	255	71.150262884174	48
0	257	72.372706107639	49
0	265	74.317078496173	50
0	273	75.751495125081	51
0	281	76.818744755892	52
0	287	78.035641736893	53
0	295	79.917227140937	54
0	297	81.229087361444	55
0	303	83.027134191787	56
0	309	84.815873613192	57
0	317	86.334074324539	58
0	319	87.611703032937	59
0	325	89.419283297921	60
0	331	91.136142977823	61
0	339	92.301101849258	62
0	341	93.51855234367	63
0	347	95.070744815126	64
0	349	96.748008121813	65
0	359	97.764437753085	66
0	367	99.344884883689	67
0	375	100.837153123535	68
0	381	102.031495343039	69
0	387	104.013324729942	70
0	389	105.42381687144	71
0	391	107.245934606373	72
0	403	108.647066947847	73
0	405	110.046565864777	74
0	409	111.45380703251	75
0	413	112.507234209991	76
0	417	114.277814958786	77
0	425	115.367417991936	78
0	427	117.094462255791	79
0	429	118.350601838745	80
0	435	119.405976155616	81
0	441	120.84799147498	82
0	443	122.636536989437	83
0	449	124.296576851124	84
0	451	125.670389990632	85
0	453	126.680078164286	86
0	455	128.050930964372	87
0	461	129.830122935197	88
0	467	131.348958082807	89
0	469	132.824247527246	90
0	477	134.254649966799	91
0	479	135.647325648072	92
0	481	136.807195714752	93
0	487	138.711179666298	94
0	491	140.511558125105	95
0	501	141.937864003081	96
0	509	143.734255477863	97
0	521	145.686129952625	98
0	527	147.110162204441	99
0	533	148.229933552753	100
0	537	149.631193049794	101
0	539	151.576494583238	102
0	543	152.66852216663	103
0	549	153.905695457088	104
0	557	154.973769533292	105
0	563	156.089253826144	106
0	565	157.399321470021	107
0	571	159.038083224634	108
0	573	160.839919374867	109
0	581	162.08133799311	110
0	587	163.636025804405	111
0	593	165.604928840262	112
0	601	166.953448203703	113
0	603	168.945459447879	114
0	605	170.173723061647	115
0	613	172.124675670018	116
0	615	173.397112567754	117
0	621	174.771357150593	118
0	623	176.220648798703	119
0	631	178.106611064247	120
0	635	179.626253889951	121
0	641	180.775083186415	122
0	647	182.067877217506	123
0	651	183.167909269764	124
0	655	184.187209874236	125
0	661	185.445912191256	126
0	671	186.901356337669	127
0	677	188.526992955322	128
0	681	189.780635477819	129
0	689	191.129111467239	130
0	695	192.470809580835	131
0	697	194.32711255884	132
0	699	196.037449386979	133
0	705	197.497669094785	134
0	707	198.903611417704	135
0	711	200.329119053746	136
0	713	202.29798315543	137
0	715	203.413686391509	138
0	721	204.703462267837	139
0	729	206.350658919739	140
0	737	208.164337568295	141
0	741	209.684289946065	142
0	749	210.912049445866	143
0	755	212.892629579252	144
0	763	214.013548940264	145
0	769	215.330036859803	146
0	775	217.216341524694	147
0	781	218.551972503617	148
0	785	219.591588026454	149
0	787	221.499320984195	150
0	793	222.934081622242	151
0	795	224.932043874479	152
0	799	226.529346811661	153
0	801	228.499568615417	154
0	803	229.827556614374	155
0	805	231.027920937008	156
0	815	232.635170314303	157
0	821	234.066955240751	158
0	833	235.657982137828	159
0	839	237.547775792499	160
0	841	239.313046381186	161
1	3	0.133506796753	0
1	19	3.112857078482	1
1	31	6.073100617015	2
1	35	7.520961916879	3
1	49	12.409684165622	4
1	61	13.558718870748	5
1	67	15.218428920221	6
1	83	19.369195754836	7
1	87	20.473490311606	8
1	129	31.435776025617	9
1	147	36.265398274281	10
1	159	39.991038575204	11
1	165	41.866003213402	12
1	181	45.699395792467	13
1	215	55.965519595144	14
1	221	57.659528669977	15
1	249	68.102922918307	16
1	259	72.396159581971	17
1	299	81.241140839131	18
1	321	87.635449832475	19
1	333	91.147476384056	20
1	351	96.784533706968	21
1	369	99.367457253645	22
1	377	100.861995548362	23
1	383	102.048003316463	24
1	393	107.257220408746	25
1	411	111.476738511098	26
1	415	112.518823541788	27
1	419	114.298963833005	28
1	437	119.435124578192	29
1	463	129.843787448115	30
1	471	132.841381370074	31
1	489	138.742146029033	32
1	511	143.752829828889	33
1	551	153.918598191239	34
1	559	154.993405460255	35
1	567	157.416060904463	36
1	607	170.186381227137	37
1	617	173.41103418065	38
1	633	178.120900182605	39
1	643	180.786736116538	40
1	649	182.110130378343	41
1	657	184.19963732861	42
1	673	186.915354290394	43
1	679	188.542901307526	44
1	701	196.047697719056	45
1	717	203.431431559388	46
1	723	204.722634985806	47
1	731	206.36778848453	48
1	739	208.186177845658	49
1	751	210.942589970705	50
1	757	212.914045734487	51
1	777	217.236163906538	52
1	783	218.562590665103	53
1	797	224.952515797034	54
1	817	232.654154337967	55
1	823	234.087719145345	56
2	5	0.162296437295	0
2	9	0.196209621693	1
2	15	1.863485135026	2
2	37	7.54517556368	3
2	45	10.650479664301	4
2	51	12.448463315835	5
2	55	12.48018610067	6
2	63	13.570099157632	7
2	69	15.238487630273	8
2	77	16.599633489618	9
2	89	20.48362695739	10
2	97	21.682369163958	11
2	131	31.463433436341	12
2	137	32.842099487258	13
2	143	34.526900988753	14
2	149	36.313828340113	15
2	161	40.011816924045	16
2	167	41.885327242206	17
2	193	49.0543286182	18
2	199	50.532240984122	19
2	217	55.976038720666	20
2	223	57.673991198182	21
2	227	57.715215422702	22
2	251	68.126020772021	23
2	261	72.441304368776	24
2	277	75.794174065595	25
2	285	76.851099760557	26
2	291	78.087995193792	27
2	301	81.257231285258	28
2	307	83.052670107666	29
2	313	84.837802337056	30
2	323	87.652735070902	31
2	335	91.18568274354	32
2	345	93.54968105295	33
2	353	96.812433603013	34
2	357	96.837747123776	35
2	371	99.387411890079	36
2	379	100.876260906482	37
2	385	102.058043879676	38
2	395	107.268250092383	39
2	399	107.32907108508	40
2	421	114.314622778421	41
2	439	119.449903758067	42
2	459	128.112939628951	43
2	465	129.859141491626	44
2	473	132.852934225929	45
2	495	140.541938670058	46
2	499	140.564957726282	47
2	505	141.99684680921	48
2	513	143.764545215163	49
2	517	143.802439779976	50
2	531	147.136194525348	51
2	547	152.706974879427	52
2	553	153.937276809938	53
2	561	155.008094673528	54
2	569	157.430651183738	55
2	609	170.201246418535	56
2	619	173.423749738567	57
2	639	179.653679367542	58
2	645	180.808645931072	59
2	659	184.217668696329	60
2	665	185.492945514535	61
2	669	185.539186600784	62
2	675	186.945182416197	63
2	703	196.083222483991	64
2	719	203.471163642783	65
2	725	204.750581716946	66
2	733	206.378083802642	67
2	753	210.957359948214	68
2	759	212.958555835781	69
2	773	215.364646041267	70
2	779	217.258086428959	71
2	809	231.064440668359	72
2	813	231.118008004693	73
2	819	232.665172494387	74
2	825	234.098102033323	75
2	829	234.150186574243	76
3	7	0.182678030302	0
3	27	5.115556262017	1
3	53	12.464440776603	2
3	57	12.491231712928	3
3	71	15.249563981355	4
3	91	20.511825146583	5
3	175	43.132742298105	6
3	225	57.697854111702	7
3	263	72.454239445295	8
3	271	74.390261817608	9
3	279	75.826872465753	10
3	293	78.105328870524	11
3	315	84.852489101816	12
3	337	91.209426173684	13
3	355	96.825742701825	14
3	373	99.404306235457	15
3	397	107.286671455411	16
3	401	107.344370700873	17
3	423	114.33277296173	18
3	475	132.866185934634	19
3	497	140.552213091062	20
3	507	142.026346578328	21
3	515	143.791447564711	22
3	519	143.817521974517	23
3	555	153.948681567108	24
3	579	160.8981145168	25
3	611	170.224366049346	26
3	667	185.506661672083	27
3	727	204.760751873183	28
3	735	206.389106820452	29
3	761	212.969789930496	30
3	811	231.081666690734	31
3	827	234.112439028027	32
3	831	234.176955921573	33
4	13	1.845958393893	0
4	23	5.055591734789	1
4	43	10.639026884028	2
4	75	16.584282842847	3
4	95	21.671795894694	4
4	103	24.66320023394	5
4	113	27.028906532001	6
4	121	30.150103495096	7
4	135	32.828696019876	8
4	141	34.508408780637	9
4	153	38.217528268216	10
4	171	43.102306330538	11
4	185	47.049288237964	12
4	191	49.036627849605	13
4	197	50.454587078923	14
4	205	53.419764153785	15
4	233	59.8797558452	16
4	267	74.330815194117	17
4	275	75.772870510136	18
4	283	76.839623800228	19
4	289	78.069120174507	20
4	305	83.039740593081	21
4	311	84.826133590644	22
4	327	89.434326097254	23
4	343	93.537334494457	24
4	361	97.789927869877	25
4	407	110.059208569418	26
4	431	118.364191451929	27
4	445	122.648851199157	28
4	457	128.08685545046	29
4	483	136.825044084948	30
4	493	140.527967860558	31
4	503	141.979846552849	32
4	523	145.699123236449	33
4	529	147.126029892508	34
4	535	148.266425435375	35
4	541	151.587070512406	36
4	545	152.696817588189	37
4	575	160.860781407979	38
4	583	162.094721454297	39
4	589	163.65053819239	40
4	595	165.63180102315	41
4	625	176.234985447257	42
4	637	179.637667821078	43
4	653	183.216818370668	44
4	663	185.461049047389	45
4	683	189.804109966056	46
4	691	191.150389071575	47
4	709	198.937274320342	48
4	743	209.699571385972	49
4	765	214.026379664622	50
4	771	215.345949887659	51
4	789	221.511398017057	52
4	807	231.044415044276	53
4	835	235.68244521355	54
5	25	5.067104043326	0
5	105	24.679756696784	1
5	115	27.046314121505	2
5	123	30.161516802232	3
5	155	38.248823262177	4
5	173	43.117142687404	5
5	187	47.081974577891	6
5	207	53.448603442651	7
5	235	59.893992416214	8
5	269	74.378282140255	9
5	329	89.462678731283	10
5	363	97.804055168544	11
5	433	118.380325842825	12
5	447	122.673875327094	13
5	485	136.859184249253	14
5	525	145.722680421588	15
5	577	160.88083074107	16
5	585	162.118124213917	17
5	591	163.661009185101	18
5	597	165.646609805393	19
5	627	176.251964822745	20
5	685	189.821662084234	21
5	693	191.163573001736	22
5	745	209.731398524865	23
5	767	214.039946827149	24
5	791	221.528925713577	25
5	837	235.695622906964	26
6	58	12.501231712928	0
6	280	75.836872465753	1
6	832	234.186955921573	2
7	107	24.693583706273	0
7	125	30.189929626947	1
7	209	53.463903471432	2
7	237	59.913363803391	3
7	365	97.82012796143	4
7	599	165.680143153074	5
7	629	176.264215247684	6
7	687	189.84405906504	7
7	747	209.751043522483	8

