version 2
run General-4-20230921-23:29:44-9547
attr configname General
attr datetime 20230921-23:29:44
attr experiment General
attr inifile omnetpp.ini
attr iterationvars ""
attr iterationvarsf ""
attr measurement ""
attr network Network3
attr processid 9547
attr repetition 4
attr replication #4
attr resultdir results
attr runnumber 4
attr seedset 4
param Network3.node[*].transmissionTime "uniform(1s, 2s)"
param Network3.node[*].delayTime "uniform(0.01s, 0.2s)"
param Network3.node[*].processingTime exponential(0.01s)
param Network3.node[0].lossProbability 0
param Network3.node[1].lossProbability 0.3
param Network3.node[2].lossProbability 0.3
param Network3.node[3].lossProbability "0.3 / 2"
param Network3.node[4].lossProbability "0.3 / 2"
param Network3.node[6].lossProbability "0.3 * 2"
param Network3.node[7].lossProbability "0.3 * 2"
param Network3.node[5].lossProbability "0.3 * 3"

vector 0 Network3.node[0] txVector ETV
vector 1 Network3.node[2] txVector ETV
vector 2 Network3.node[4] txVector ETV
vector 3 Network3.node[7] txVector ETV
vector 4 Network3.node[1] txVector ETV
vector 5 Network3.node[3] txVector ETV
vector 6 Network3.node[5] rxVector ETV
vector 7 Network3.node[6] txVector ETV
0	1	0.193735669288	0
0	3	1.740967922532	1
0	13	3.596588867404	2
0	15	5.37597179335	3
0	21	6.948328285165	4
0	25	7.957314379666	5
0	33	9.913967346227	6
0	35	10.988915932983	7
0	37	12.164777167993	8
0	45	13.89815733341	9
0	47	15.056380740986	10
0	55	16.26756129662	11
0	61	17.490593817238	12
0	67	19.177260898905	13
0	73	21.106667553693	14
0	89	22.289112954786	15
0	91	23.373774567073	16
0	93	24.418422395516	17
0	95	26.151015847608	18
0	99	27.95803239398	19
0	105	29.90198306708	20
0	107	31.669741108235	21
0	109	33.190415509664	22
0	123	34.874438724867	23
0	129	36.801847335338	24
0	135	38.194628507053	25
0	143	39.307138842685	26
0	149	40.809786915468	27
0	151	42.421608734565	28
0	159	43.730403299133	29
0	163	44.925708009318	30
0	167	46.155604909329	31
0	169	47.817907344472	32
0	177	49.361197658271	33
0	179	50.633669119483	34
0	187	52.105637182403	35
0	197	53.515272671511	36
0	201	55.278154461799	37
0	207	56.412907067608	38
0	213	58.186878694143	39
0	215	59.553214832131	40
0	223	61.221327083806	41
0	225	62.97056909829	42
0	231	64.061479644772	43
0	237	66.013450065317	44
0	239	67.27025498768	45
0	241	68.373050228149	46
0	243	69.74839037323	47
0	255	70.943338060906	48
0	267	72.690586503982	49
0	269	73.734509012117	50
0	271	75.593229861851	51
0	277	77.056079619951	52
0	283	78.290796668888	53
0	289	79.837202501404	54
0	297	81.436999990991	55
0	299	83.173500260724	56
0	305	84.609671265505	57
0	313	86.046694739409	58
0	315	87.171687308153	59
0	321	88.367711701583	60
0	325	89.935080669042	61
0	331	91.017788279955	62
0	341	92.52264813256	63
0	349	94.116796267606	64
0	359	95.310311231916	65
0	361	97.209535606359	66
0	363	98.564872237076	67
0	365	100.498414866081	68
0	367	101.862392187272	69
0	375	103.743793782466	70
0	385	104.776853250028	71
0	391	106.684315456464	72
0	397	107.797672361755	73
0	407	109.233407100118	74
0	411	110.587259166795	75
0	421	112.126707359837	76
0	429	113.890916199112	77
0	431	115.423144723443	78
0	439	116.523622160932	79
0	445	118.39186673883	80
0	451	120.237405833245	81
0	457	121.990794926804	82
0	459	123.687846365773	83
0	463	124.93252829571	84
0	465	126.921980690367	85
0	471	127.983609781058	86
0	475	129.901793082401	87
0	477	131.551091631565	88
0	485	133.067838394239	89
0	491	134.570392914272	90
0	499	135.877338128087	91
0	505	137.800451455095	92
0	511	139.582355943431	93
0	513	140.621679194893	94
0	519	141.703393215935	95
0	533	143.027114229433	96
0	537	144.351535817066	97
0	539	146.313210409989	98
0	541	147.929332398267	99
0	547	149.037216621374	100
0	553	150.952478385686	101
0	555	152.073409648302	102
0	563	153.728910714776	103
0	565	154.830676230059	104
0	573	156.467928341047	105
0	575	157.946278871426	106
0	579	159.04312929387	107
0	585	160.937155008705	108
0	591	162.578999925794	109
0	595	163.807723705115	110
0	607	165.154931116773	111
0	613	166.744377493316	112
0	619	168.409048459183	113
0	625	169.470428477896	114
0	631	170.964964059803	115
0	639	172.586546895017	116
0	659	173.808797620858	117
0	671	175.127116733619	118
0	681	176.653544879674	119
0	685	178.292409353812	120
0	689	179.562315133788	121
0	693	180.625066945717	122
0	699	182.039784691451	123
0	701	183.451085442599	124
0	709	184.458474539375	125
0	717	186.293177093767	126
0	721	187.332986565695	127
0	723	188.333893240818	128
0	729	189.721391800015	129
0	735	191.632897917802	130
0	741	192.761598412568	131
0	745	193.839507886363	132
0	751	194.94751891323	133
0	757	196.186263566526	134
0	763	197.976116018525	135
0	765	199.734244441536	136
0	767	201.454639221464	137
0	769	202.47581267093	138
0	779	204.338283792526	139
0	781	205.434328938524	140
0	787	207.412325115564	141
0	793	209.022246282703	142
0	797	210.995292800401	143
0	805	212.160553847828	144
0	809	213.458566947996	145
0	815	214.480508989345	146
0	819	215.529158477129	147
0	821	216.807483025983	148
0	823	218.165585829567	149
0	825	219.413353528285	150
0	831	220.61002164047	151
0	833	222.329676368896	152
0	835	223.467815146938	153
0	841	225.272282144444	154
0	849	227.179984844912	155
0	853	228.305471444426	156
0	861	229.941039078792	157
0	865	231.480060158686	158
0	869	232.943265354882	159
0	875	234.524433540336	160
0	881	236.156086078535	161
0	883	237.758168261188	162
0	891	239.304357049909	163
1	5	1.760359310201	0
1	23	6.963215197273	1
1	39	12.180027154826	2
1	63	17.503519820751	3
1	69	19.189954623744	4
1	101	27.969810173589	5
1	137	38.205378795305	6
1	145	39.330902077585	7
1	161	43.748646534654	8
1	165	44.936083590469	9
1	181	50.65373591101	10
1	189	52.132288650533	11
1	199	53.572154730277	12
1	203	55.301626919009	13
1	209	56.438402669183	14
1	217	59.566283623888	15
1	301	83.196860489881	16
1	317	87.187735544177	17
1	323	88.387821398084	18
1	343	92.533032892353	19
1	351	94.127011873697	20
1	369	101.904036004996	21
1	377	103.756112636772	22
1	387	104.798156364442	23
1	393	106.694821284305	24
1	433	115.446821381326	25
1	453	120.255503548142	26
1	461	123.713738445308	27
1	467	126.942450601297	28
1	479	131.567761887234	29
1	493	134.59602343689	30
1	507	137.831038748994	31
1	521	141.713959734326	32
1	549	149.047859582279	33
1	567	154.854050573988	34
1	577	157.962897062239	35
1	581	159.05816092672	36
1	593	162.603710618095	37
1	597	163.830258875715	38
1	621	168.421487572449	39
1	627	169.482935112006	40
1	641	172.608121364412	41
1	673	175.137690999978	42
1	687	178.311190893516	43
1	725	188.362519086295	44
1	743	192.782215534158	45
1	747	193.870968877381	46
1	759	196.202953380723	47
1	795	209.032666522677	48
1	799	211.051165373069	49
1	811	213.473770033939	50
1	817	214.499109624554	51
1	827	219.424074884729	52
1	855	228.315637856972	53
1	863	229.963399837144	54
1	867	231.49468183779	55
1	877	234.545594600184	56
1	893	239.33253644356	57
2	7	1.772793914442	0
2	11	1.79825312864	1
2	41	12.210452965969	2
2	51	15.083507253362	3
2	59	16.293764267997	4
2	65	17.516435511711	5
2	71	19.202079706902	6
2	77	21.155517936719	7
2	81	21.185316141974	8
2	85	21.228093500809	9
2	103	27.989343944714	10
2	113	33.219024826392	11
2	117	33.257414366007	12
2	121	33.306242995592	13
2	133	36.83613298375	14
2	139	38.254308974414	15
2	147	39.345170773227	16
2	155	42.460854073596	17
2	173	47.838420581884	18
2	183	50.66478204963	19
2	191	52.168299720342	20
2	195	52.210728421566	21
2	205	55.312900443516	22
2	211	56.452556708847	23
2	219	59.603662151443	24
2	229	63.005337126462	25
2	235	64.084150757038	26
2	247	69.77929150389	27
2	251	69.831124544029	28
2	259	70.969456549517	29
2	263	71.015977722304	30
2	275	75.620075183691	31
2	293	79.893304763044	32
2	303	83.217645476222	33
2	319	87.215981100537	34
2	329	89.967653447174	35
2	335	91.038915694321	36
2	339	91.064239358902	37
2	345	92.544470119389	38
2	353	94.153894866314	39
2	357	94.202040886859	40
2	371	101.933688656936	41
2	379	103.773160929599	42
2	383	103.846557324304	43
2	389	104.840754171958	44
2	395	106.706464009543	45
2	401	107.82144759414	46
2	405	107.858225017056	47
2	415	110.612923246857	48
2	419	110.657147460399	49
2	435	115.475675030198	50
2	449	118.428373813087	51
2	455	120.268890190502	52
2	469	126.966350952057	53
2	481	131.596252076603	54
2	495	134.622294161872	55
2	509	137.862328196415	56
2	517	140.647521275818	57
2	523	141.756479873105	58
2	527	141.811017440977	59
2	531	141.868688520453	60
2	551	149.059938348106	61
2	569	154.867018951529	62
2	583	159.069308826673	63
2	599	163.84643371721	64
2	603	163.878489295688	65
2	611	165.188660005123	66
2	623	168.437118354105	67
2	629	169.496502744931	68
2	643	172.62027087363	69
2	647	172.656101479578	70
2	651	172.687005024934	71
2	655	172.718060716426	72
2	663	173.836734123021	73
2	667	173.945633927668	74
2	675	175.171635620462	75
2	679	175.203859328607	76
2	713	184.511728296166	77
2	727	188.374120604568	78
2	733	189.785897895974	79
2	749	193.881450969445	80
2	761	196.225257275452	81
2	773	202.517345368141	82
2	777	202.559915824754	83
2	801	211.070210753409	84
2	813	213.484950801472	85
2	829	219.434220613704	86
2	857	228.327057720012	87
2	879	234.560021055267	88
2	887	237.792100819904	89
2	895	239.346738940021	90
3	9	1.78533646383	0
3	31	8.013570690209	1
3	43	12.227828056225	2
3	53	15.098213186333	3
3	79	21.170909781446	4
3	83	21.199338462951	5
3	87	21.257827343635	6
3	115	33.23571400994	7
3	119	33.293549135338	8
3	141	38.285247856898	9
3	157	42.497690921408	10
3	175	47.859403457243	11
3	185	50.702254196908	12
3	193	52.198732138937	13
3	221	59.622744332666	14
3	249	69.79403716436	15
3	253	69.847426877655	16
3	261	70.984250372473	17
3	265	71.031182429084	18
3	295	79.917554538703	19
3	311	84.723328745746	20
3	337	91.052403372656	21
3	347	92.557068115896	22
3	355	94.182350055093	23
3	373	101.957184043481	24
3	381	103.820041710378	25
3	403	107.83792651944	26
3	417	110.646872716493	27
3	427	112.168045754488	28
3	437	115.490747481308	29
3	483	131.613144283778	30
3	497	134.63730438036	31
3	525	141.789197138148	32
3	529	141.830369800552	33
3	561	152.127760931672	34
3	571	154.891486041907	35
3	601	163.856939727871	36
3	605	163.891384195632	37
3	645	172.634955391692	38
3	649	172.667312763556	39
3	653	172.706372130862	40
3	657	172.768724885772	41
3	665	173.914463038988	42
3	669	173.96202722542	43
3	677	175.187788112532	44
3	707	183.501422403706	45
3	715	184.539830174553	46
3	775	202.546009425108	47
3	803	211.091545353592	48
3	847	225.373464805935	49
3	859	228.348200639988	50
3	889	237.837875350583	51
4	17	5.390458072086	0
4	27	7.973043990431	1
4	49	15.068374041971	2
4	57	16.27905501517	3
4	75	21.141724735534	4
4	97	26.162073680625	5
4	111	33.207644435779	6
4	125	34.886391674128	7
4	131	36.821495055262	8
4	153	42.445600994001	9
4	171	47.828251992097	10
4	227	62.988712806216	11
4	233	64.071645854618	12
4	245	69.763401376134	13
4	257	70.954214362581	14
4	273	75.60876010195	15
4	279	77.074361347815	16
4	285	78.303832645734	17
4	291	79.879839486163	18
4	307	84.639779692184	19
4	327	89.946783004634	20
4	333	91.028738802287	21
4	399	107.808266943972	22
4	409	109.250977066014	23
4	413	110.601694464559	24
4	423	112.137022706831	25
4	441	116.547246747526	26
4	447	118.4072391591	27
4	473	127.997056450858	28
4	487	133.093756439091	29
4	501	135.893638318874	30
4	515	140.63507736005	31
4	535	143.037234158974	32
4	543	147.946622217125	33
4	557	152.101750412455	34
4	587	160.959435840829	35
4	609	165.175176238114	36
4	615	166.784215825949	37
4	633	170.98081354092	38
4	661	173.822709712682	39
4	683	176.672351396977	40
4	691	179.577037204251	41
4	695	180.646302577045	42
4	703	183.466929440505	43
4	711	184.487068846864	44
4	719	186.305114096509	45
4	731	189.756370666798	46
4	737	191.652419515475	47
4	753	194.958276731828	48
4	771	202.49433111572	49
4	783	205.451966568828	50
4	789	207.460233535305	51
4	807	212.184230841999	52
4	837	223.48840878694	53
4	843	225.332624536068	54
4	851	227.192166976298	55
4	871	232.954069384627	56
4	885	237.770094234765	57
5	19	5.402247451888	0
5	29	7.983449922743	1
5	127	34.898486863939	2
5	281	77.084618646759	3
5	287	78.314421719609	4
5	309	84.712018665681	5
5	425	112.152331567363	6
5	443	116.575044700496	7
5	489	133.109751083072	8
5	503	135.913713915732	9
5	545	147.959323813944	10
5	559	152.114367517548	11
5	589	160.969775823911	12
5	617	166.799008607357	13
5	635	171.014196461991	14
5	697	180.664862630317	15
5	705	183.489993070892	16
5	739	191.668125408888	17
5	755	194.978170547112	18
5	785	205.463749157819	19
5	791	207.481467546141	20
5	839	223.54500103146	21
5	845	225.344298758492	22
5	873	232.983823313179	23
6	142	38.295247856898	0
6	254	69.857426877655	1
6	266	71.041182429084	2
6	296	79.927554538703	3
7	637	171.059800284453	0

