version 2
run General-1-20230921-23:29:44-9547
attr configname General
attr datetime 20230921-23:29:44
attr experiment General
attr inifile omnetpp.ini
attr iterationvars ""
attr iterationvarsf ""
attr measurement ""
attr network Network3
attr processid 9547
attr repetition 1
attr replication #1
attr resultdir results
attr runnumber 1
attr seedset 1
param Network3.node[*].transmissionTime "uniform(1s, 2s)"
param Network3.node[*].delayTime "uniform(0.01s, 0.2s)"
param Network3.node[*].processingTime exponential(0.01s)
param Network3.node[0].lossProbability 0
param Network3.node[1].lossProbability 0.3
param Network3.node[2].lossProbability 0.3
param Network3.node[3].lossProbability "0.3 / 2"
param Network3.node[4].lossProbability "0.3 / 2"
param Network3.node[6].lossProbability "0.3 * 2"
param Network3.node[7].lossProbability "0.3 * 2"
param Network3.node[5].lossProbability "0.3 * 3"

vector 0 Network3.node[0] txVector ETV
vector 1 Network3.node[2] txVector ETV
vector 2 Network3.node[4] txVector ETV
vector 3 Network3.node[1] txVector ETV
vector 4 Network3.node[3] txVector ETV
vector 5 Network3.node[7] txVector ETV
vector 6 Network3.node[6] txVector ETV
vector 7 Network3.node[5] rxVector ETV
0	1	0.089234179703	0
0	7	1.809558668991	1
0	9	3.206139395132	2
0	15	4.551700120212	3
0	17	6.076248282918	4
0	19	7.954365719927	5
0	25	9.488779627138	6
0	31	10.686881110423	7
0	37	12.205033658656	8
0	39	13.374864081272	9
0	41	15.045392122471	10
0	47	16.46649974317	11
0	55	17.608619876091	12
0	57	18.907115174575	13
0	59	20.696394506727	14
0	63	21.769758680953	15
0	65	23.673128852273	16
0	75	24.803157421413	17
0	77	26.417095739746	18
0	79	28.006401277033	19
0	81	29.237416698483	20
0	93	30.65147268458	21
0	97	32.554874597469	22
0	103	34.362265888022	23
0	107	35.933274450132	24
0	113	37.62347903976	25
0	119	39.519365255141	26
0	121	40.593157266152	27
0	123	42.542646526012	28
0	139	43.897956889241	29
0	147	45.662549459727	30
0	149	47.13502450113	31
0	151	49.067619965997	32
0	153	50.531931473528	33
0	159	52.287394525371	34
0	161	53.459672882342	35
0	163	54.485883869584	36
0	165	55.995694147776	37
0	167	57.855722098266	38
0	173	59.087480561695	39
0	181	60.673239829604	40
0	187	62.480345020889	41
0	189	63.908727430393	42
0	191	64.968645125282	43
0	193	66.905835451213	44
0	201	68.013329574493	45
0	207	69.980605904133	46
0	209	71.142224433719	47
0	215	72.723583363349	48
0	221	73.927941487523	49
0	223	74.997963632344	50
0	231	76.811839994163	51
0	237	78.320628732796	52
0	243	79.386963565489	53
0	245	80.549169076727	54
0	247	81.809484178786	55
0	249	82.952747185602	56
0	255	84.592208067308	57
0	263	86.320219707562	58
0	269	88.048777104242	59
0	271	89.964383459769	60
0	277	91.890734170915	61
0	283	93.816915597885	62
0	285	95.171492831667	63
0	289	96.30657198711	64
0	293	98.254542197917	65
0	295	99.430738458295	66
0	297	100.933814368096	67
0	305	102.743305058802	68
0	311	104.648697370781	69
0	317	105.775223529084	70
0	319	107.20889988274	71
0	325	109.072701682222	72
0	329	110.860630916317	73
0	331	112.280824596879	74
0	337	113.680239888259	75
0	339	115.654023430894	76
0	345	116.811779427227	77
0	353	118.398612764782	78
0	355	119.721293765471	79
0	361	121.188671070269	80
0	363	122.506055021311	81
0	369	124.06751398009	82
0	371	125.494214991925	83
0	379	126.714081290064	84
0	385	128.012881514037	85
0	387	129.746024045514	86
0	391	131.189832028819	87
0	397	133.00160354248	88
0	399	134.984420659139	89
0	403	136.265637550621	90
0	409	137.925969447127	91
0	415	139.151009400726	92
0	417	140.618094715873	93
0	423	141.728986018688	94
0	425	143.234449949466	95
0	427	145.086121827714	96
0	433	146.243701455999	97
0	435	147.720842441428	98
0	441	148.921051436686	99
0	443	150.672579256468	100
0	449	151.720879268483	101
0	451	153.593801647774	102
0	467	154.945922959247	103
0	475	156.915487466031	104
0	479	158.428149168496	105
0	485	159.874248674023	106
0	493	161.848989038845	107
0	501	163.204694209504	108
0	511	165.067040462396	109
0	513	166.342886362108	110
0	523	167.605059441062	111
0	525	169.094066741992	112
0	527	170.68749919685	113
0	533	171.853188837063	114
0	537	173.812623154255	115
0	539	175.522010407061	116
0	545	176.894098080811	117
0	551	178.322716911207	118
0	557	179.781240089447	119
0	561	181.605249954969	120
0	565	182.683636854984	121
0	569	184.142220668145	122
0	577	185.897082147072	123
0	579	187.371086073923	124
0	587	189.362536642817	125
0	589	191.050652743899	126
0	591	192.589280028478	127
0	599	193.869964819983	128
0	601	195.48526905186	129
0	609	197.107764950371	130
0	617	198.508638679864	131
0	629	199.772936157998	132
0	631	201.206528488197	133
0	639	202.435133297578	134
0	647	203.740931537584	135
0	649	205.238914844929	136
0	663	206.248263422982	137
0	667	207.627110316069	138
0	669	209.033813189832	139
0	671	210.348189811339	140
0	677	212.204662874691	141
0	679	213.906539405813	142
0	685	215.785811173614	143
0	687	217.449913735153	144
0	699	219.228552140878	145
0	701	220.855474089622	146
0	703	221.949051187956	147
0	709	223.017482248252	148
0	721	224.990269838717	149
0	727	226.720361046145	150
0	733	227.832260804601	151
0	741	229.170968829306	152
0	747	230.675487998292	153
0	759	232.538399720216	154
0	767	233.643068330014	155
0	769	234.891329554958	156
0	775	236.451859539492	157
0	781	237.698780025007	158
0	787	239.506478434546	159
1	3	0.099235323579	0
1	11	3.221193920457	1
1	21	7.988895384729	2
1	43	15.087066711696	3
1	49	16.491792824757	4
1	67	23.683324421824	5
1	83	29.25927148587	6
1	95	30.662951592583	7
1	99	32.569944209039	8
1	109	35.953708574262	9
1	141	43.91425659796	10
1	169	57.900039053537	11
1	175	59.132412289048	12
1	183	60.688147782794	13
1	195	66.918393530658	14
1	203	68.031725197196	15
1	211	71.187296678051	16
1	225	75.022342588853	17
1	239	78.335250424012	18
1	257	84.60960493522	19
1	287	95.188538192954	20
1	299	100.9480415488	21
1	313	104.6886633587	22
1	327	109.092169985279	23
1	347	116.835643241439	24
1	365	122.517892216231	25
1	381	126.731862232356	26
1	437	147.742250545814	27
1	453	153.60381178571	28
1	477	156.935039469226	29
1	481	158.472573317266	30
1	495	161.85925472287	31
1	503	163.226492792619	32
1	515	166.366756204561	33
1	529	170.70449077961	34
1	535	171.879483248362	35
1	541	175.532875309043	36
1	547	176.905252399913	37
1	553	178.346024831052	38
1	563	181.615434982609	39
1	567	182.694839813541	40
1	641	202.466929935701	41
1	651	205.25751290778	42
1	681	213.92304891374	43
1	705	221.980225197222	44
1	711	223.042069818178	45
1	723	225.006592774525	46
1	729	226.734115469105	47
1	743	229.1921727775	48
1	749	230.71240836544	49
1	789	239.517070068356	50
2	5	0.178726466452	0
2	13	3.249922157126	1
2	23	8.007075457843	2
2	35	10.72779621048	3
2	45	15.099267580143	4
2	51	16.501977400537	5
2	69	23.718196875771	6
2	73	23.750063222357	7
2	85	29.277049836825	8
2	89	29.306234146723	9
2	101	32.590508329175	10
2	111	35.967999469133	11
2	117	37.649184175136	12
2	127	42.593796901725	13
2	131	42.628591995144	14
2	135	42.657739539914	15
2	143	43.950769124676	16
2	171	57.911364924119	17
2	177	59.146998467832	18
2	185	60.712085927229	19
2	197	66.928760164648	20
2	205	68.042493672849	21
2	213	71.210804234433	22
2	227	75.036160500537	23
2	235	76.845332404533	24
2	241	78.34602202571	25
2	259	84.643444606862	26
2	275	89.997143362909	27
2	281	91.945230149424	28
2	301	100.962420161524	29
2	309	102.773715594832	30
2	315	104.698819910491	31
2	335	112.347044592871	32
2	349	116.846014754899	33
2	359	119.751043853573	34
2	367	122.539218071887	35
2	383	126.758065253707	36
2	407	136.294002537783	37
2	431	145.116488624283	38
2	439	147.762867681218	39
2	455	153.643730381643	40
2	459	153.674581303045	41
2	463	153.716854119475	42
2	483	158.505730875334	43
2	489	159.953745016483	44
2	497	161.877865162356	45
2	505	163.243178789578	46
2	509	163.272156518881	47
2	517	166.378993576351	48
2	521	166.419005959133	49
2	531	170.721647601055	50
2	543	175.545982387341	51
2	549	176.915721340489	52
2	555	178.374723218628	53
2	573	184.185333335722	54
2	605	195.548639877214	55
2	613	197.137367337588	56
2	625	198.579108656374	57
2	635	201.257629717048	58
2	643	202.485106083095	59
2	653	205.284638952678	60
2	657	205.331223400929	61
2	661	205.377623791533	62
2	683	213.933635426222	63
2	691	217.480330895289	64
2	695	217.510493222696	65
2	707	222.027254993744	66
2	713	223.053885378435	67
2	717	223.088916876664	68
2	725	225.026100410373	69
2	731	226.785709712909	70
2	737	227.862602570344	71
2	745	229.20656571052	72
2	751	230.722535204092	73
2	755	230.760471088849	74
2	779	236.489597948177	75
2	791	239.529572604405	76
3	27	9.514911304051	0
3	33	10.716907415194	1
3	61	20.712728932306	2
3	105	34.382422482549	3
3	115	37.639066796999	4
3	125	42.581091575691	5
3	155	50.555950679428	6
3	217	72.773622901622	7
3	233	76.82426899697	8
3	251	82.970184651845	9
3	265	86.344339333057	10
3	273	89.977872108513	11
3	279	91.925834377015	12
3	291	96.3341233007	13
3	307	102.759464703096	14
3	321	107.221582185346	15
3	333	112.29942615778	16
3	341	115.666374237059	17
3	357	119.735753764942	18
3	373	125.50453977157	19
3	389	129.756219123487	20
3	393	131.20994603001	21
3	401	135.014452106075	22
3	405	136.277712449974	23
3	411	137.944946881728	24
3	419	140.630238570198	25
3	429	145.10541313677	26
3	445	150.705511942708	27
3	469	154.959545268858	28
3	487	159.894371306406	29
3	559	179.801088359348	30
3	571	184.157243465226	31
3	581	187.396204658293	32
3	593	192.614250706867	33
3	603	195.518893411182	34
3	611	197.120639780334	35
3	619	198.53573619031	36
3	633	201.23501091984	37
3	665	206.268505113254	38
3	673	210.359265748577	39
3	689	217.46187453311	40
3	735	227.849681997057	41
3	761	232.552487094128	42
3	771	234.912468736727	43
3	777	236.464734622548	44
3	783	237.713142385175	45
4	29	9.541144517643	0
4	157	50.566456291323	1
4	219	72.785328310578	2
4	253	82.989947504161	3
4	267	86.384331941749	4
4	323	107.24020630208	5
4	343	115.686264899963	6
4	375	125.537957392514	7
4	395	131.224692962922	8
4	413	137.956446742608	9
4	421	140.644292485887	10
4	447	150.715737777961	11
4	471	154.972516793926	12
4	583	187.406582310872	13
4	595	192.64014543925	14
4	621	198.549043238366	15
4	675	210.386213065911	16
4	763	232.580230194251	17
4	773	234.925312632368	18
4	785	237.74169618465	19
5	53	16.521759859353	0
5	71	23.731283163854	1
5	87	29.294726311769	2
5	91	29.345164957512	3
5	129	42.618563250624	4
5	133	42.640251712479	5
5	137	42.680085321388	6
5	145	43.968783688149	7
5	179	59.173124530751	8
5	199	66.938886519392	9
5	229	75.047318381523	10
5	261	84.665061990503	11
5	303	100.993525933332	12
5	351	116.867989933356	13
5	377	125.555247084209	14
5	457	153.663541650341	15
5	461	153.697431857385	16
5	465	153.73903940264	17
5	473	154.993674415822	18
5	491	159.971219485965	19
5	499	161.888173875823	20
5	507	163.259011037447	21
5	519	166.396096840166	22
5	575	184.201313283039	23
5	607	195.571800115746	24
5	615	197.164113001382	25
5	623	198.562144406317	26
5	627	198.613274353922	27
5	637	201.278129469482	28
5	645	202.498213373352	29
5	655	205.319456770174	30
5	659	205.345864312589	31
5	693	217.491470019229	32
5	697	217.524120308445	33
5	715	223.074933677336	34
5	719	223.103271060543	35
5	739	227.873935856428	36
5	753	230.744506404859	37
5	757	230.771916794456	38
5	765	232.596356949778	39
6	585	187.416963774352	0
6	597	192.66272297092	1
7	608	195.581800115746	0

