version 2
run General-3-20230921-23:29:44-9547
attr configname General
attr datetime 20230921-23:29:44
attr experiment General
attr inifile omnetpp.ini
attr iterationvars ""
attr iterationvarsf ""
attr measurement ""
attr network Network3
attr processid 9547
attr repetition 3
attr replication #3
attr resultdir results
attr runnumber 3
attr seedset 3
param Network3.node[*].transmissionTime "uniform(1s, 2s)"
param Network3.node[*].delayTime "uniform(0.01s, 0.2s)"
param Network3.node[*].processingTime exponential(0.01s)
param Network3.node[0].lossProbability 0
param Network3.node[1].lossProbability 0.3
param Network3.node[2].lossProbability 0.3
param Network3.node[3].lossProbability "0.3 / 2"
param Network3.node[4].lossProbability "0.3 / 2"
param Network3.node[6].lossProbability "0.3 * 2"
param Network3.node[7].lossProbability "0.3 * 2"
param Network3.node[5].lossProbability "0.3 * 3"

vector 0 Network3.node[0] txVector ETV
vector 1 Network3.node[1] txVector ETV
vector 2 Network3.node[4] txVector ETV
vector 3 Network3.node[2] txVector ETV
vector 4 Network3.node[7] txVector ETV
vector 5 Network3.node[3] txVector ETV
vector 6 Network3.node[6] txVector ETV
vector 7 Network3.node[5] rxVector ETV
0	1	0.114651601831	0
0	7	1.822799424012	1
0	9	2.841547434288	2
0	11	4.048790312908	3
0	15	5.142341808486	4
0	21	6.595514108031	5
0	27	7.619495991222	6
0	33	8.925856618281	7
0	43	10.706171380193	8
0	51	12.515100579779	9
0	53	13.538218148356	10
0	59	14.944738065429	11
0	65	16.598368917895	12
0	67	18.052991000074	13
0	69	19.813569490402	14
0	75	21.327604544186	15
0	81	22.843699163594	16
0	87	24.511833968642	17
0	89	25.654433314991	18
0	95	26.897108736518	19
0	101	27.923135003145	20
0	103	28.995697140531	21
0	105	30.171759255766	22
0	111	31.271863599843	23
0	117	32.93748820743	24
0	129	34.864213892095	25
0	135	36.230154476896	26
0	141	37.433032125071	27
0	147	38.522822992713	28
0	153	40.409721120097	29
0	155	42.302114312373	30
0	157	43.341032410109	31
0	159	44.755159331321	32
0	161	46.01236570936	33
0	163	47.743073835572	34
0	167	49.640810864813	35
0	173	51.636254039661	36
0	183	52.719125054379	37
0	189	54.426556560977	38
0	195	56.167638961992	39
0	201	58.087499377618	40
0	215	59.507082138976	41
0	223	60.613003863787	42
0	225	62.541502710266	43
0	231	64.373263800118	44
0	237	65.816851479068	45
0	245	67.591819297123	46
0	249	69.292331078156	47
0	251	70.34797262407	48
0	259	71.704718312548	49
0	261	72.967145660493	50
0	267	74.446061106465	51
0	269	75.729750556239	52
0	275	77.268543218329	53
0	283	78.885248505111	54
0	287	80.502702687235	55
0	289	81.533631883628	56
0	291	83.013139194875	57
0	293	84.287776664431	58
0	295	85.749324818208	59
0	303	86.825113022999	60
0	309	88.00585335197	61
0	317	89.23356625002	62
0	319	90.378856208475	63
0	323	92.147989899918	64
0	327	93.474253905305	65
0	331	94.976177248705	66
0	335	96.815080656271	67
0	345	98.348675591239	68
0	355	100.215629281775	69
0	359	101.782010757198	70
0	361	103.598280005922	71
0	363	105.502292479688	72
0	365	106.689243475042	73
0	371	108.404130142482	74
0	379	109.835648367016	75
0	381	111.578751936622	76
0	387	113.498572546124	77
0	393	115.361824155153	78
0	399	116.434741244718	79
0	405	118.063583396442	80
0	411	119.71422556841	81
0	417	120.893226017544	82
0	419	121.995360243667	83
0	421	123.71780244617	84
0	427	124.927508885807	85
0	437	126.534852620049	86
0	441	128.472447627292	87
0	443	130.009882003603	88
0	445	131.515066472416	89
0	449	132.81788630674	90
0	455	134.564557401066	91
0	461	136.097436236286	92
0	463	137.516829185256	93
0	469	138.930448174778	94
0	471	140.123195148607	95
0	475	141.465874414261	96
0	477	143.421318787684	97
0	483	144.813790701864	98
0	489	146.034464355394	99
0	495	147.3625300979	100
0	497	148.399667051923	101
0	503	150.002967314631	102
0	511	151.742960384883	103
0	513	152.845945296878	104
0	521	154.22777033674	105
0	523	155.947260842029	106
0	525	157.659315274399	107
0	531	159.022949140355	108
0	539	160.067064361017	109
0	547	161.612467926297	110
0	551	162.686151588171	111
0	557	163.775744049878	112
0	561	164.857534789316	113
0	567	166.524015517508	114
0	571	168.412735841538	115
0	573	170.361972866415	116
0	583	172.057479156715	117
0	589	173.674720313934	118
0	591	175.37244875992	119
0	599	177.033681226031	120
0	605	178.516663571655	121
0	609	180.301359416054	122
0	613	182.124404630925	123
0	621	183.298203077236	124
0	623	184.733589655323	125
0	631	186.719491420848	126
0	637	187.988750537693	127
0	645	189.583433282164	128
0	651	191.41797046603	129
0	657	192.892927311429	130
0	665	194.314303668983	131
0	673	196.152809247676	132
0	675	197.879440114436	133
0	679	199.718391482787	134
0	681	201.145290076103	135
0	693	202.823529313387	136
0	703	203.941691381227	137
0	713	205.693497272277	138
0	721	207.087038719862	139
0	729	208.371278905145	140
0	731	209.514411035295	141
0	733	211.43274426956	142
0	741	213.412128613165	143
0	749	214.857129405553	144
0	751	216.835391024428	145
0	757	218.040732849923	146
0	763	219.915686641422	147
0	773	221.8901255029	148
0	777	223.025317655944	149
0	789	224.678720904815	150
0	797	226.016898303826	151
0	799	227.521541326374	152
0	801	228.606544666991	153
0	809	229.844370286281	154
0	815	231.557873182998	155
0	823	232.875671628931	156
0	829	234.61308195053	157
0	831	235.937474950984	158
0	837	237.167361348005	159
0	845	238.26645950654	160
0	849	239.690298541984	161
1	3	0.128089255914	0
1	45	10.721262833158	1
1	61	14.965605483632	2
1	77	21.343717123056	3
1	97	26.914152315539	4
1	107	30.183143763216	5
1	113	31.285861979912	6
1	119	32.965763715074	7
1	131	34.882262382446	8
1	143	37.449743501824	9
1	185	52.733280298594	10
1	203	58.118472340367	11
1	217	59.520455122551	12
1	233	64.393566095558	13
1	239	65.829475993232	14
1	253	70.373240035851	15
1	263	72.977788693756	16
1	277	77.317212402618	17
1	285	78.904201775374	18
1	311	88.032715591996	19
1	321	90.389109645866	20
1	329	93.5003982206	21
1	333	94.99789799113	22
1	337	96.84368834266	23
1	347	98.369945603594	24
1	367	106.704594980283	25
1	373	108.438708557521	26
1	383	111.608600895684	27
1	401	116.453827065224	28
1	413	119.736240409638	29
1	423	123.730244040486	30
1	429	124.968749806411	31
1	439	126.559534378736	32
1	457	134.582292415812	33
1	465	137.551419204646	34
1	473	140.133255903214	35
1	479	143.499798939709	36
1	485	144.842836377986	37
1	505	150.030507741589	38
1	515	152.894298300581	39
1	569	166.535698519937	40
1	593	175.391094351362	41
1	601	177.045467566086	42
1	607	178.533571176393	43
1	615	182.154025314297	44
1	625	184.744179109797	45
1	653	191.448145146508	46
1	667	194.325421290131	47
1	677	197.902886262714	48
1	683	201.178320530586	49
1	723	207.102749467552	50
1	759	218.053550262979	51
1	765	219.927163280771	52
1	791	224.691036046469	53
1	803	228.619661234581	54
1	811	229.858626888977	55
1	825	232.902735650411	56
1	839	237.188780295167	57
1	851	239.719361096475	58
2	5	0.146512953746	0
2	19	5.176047865395	1
2	25	6.628845581765	2
2	31	7.650036185087	3
2	37	8.971870042049	4
2	41	9.020958765953	5
2	57	13.573953396088	6
2	63	14.978939084524	7
2	73	19.840386305926	8
2	85	22.885346388446	9
2	93	25.710262437623	10
2	99	26.933232163197	11
2	121	32.997059343158	12
2	125	33.050334026129	13
2	139	36.300971883232	14
2	145	37.463287517892	15
2	151	38.551770367073	16
2	171	49.665934356414	17
2	177	51.705761421984	18
2	181	51.729340953146	19
2	187	52.763240105639	20
2	193	54.451953837281	21
2	199	56.190137888821	22
2	205	58.135337332731	23
2	209	58.181145873848	24
2	213	58.22056182469	25
2	229	62.589586836251	26
2	235	64.421700757238	27
2	241	65.845256385106	28
2	273	75.800046135882	29
2	279	77.331877484125	30
2	299	85.781163094346	31
2	307	86.867820407533	32
2	313	88.052878163588	33
2	339	96.859956190943	34
2	343	96.901651346253	35
2	349	98.392511574121	36
2	353	98.422840455164	37
2	369	106.730156049414	38
2	375	108.471805749632	39
2	385	111.619184606277	40
2	391	113.535181229205	41
2	397	115.391660142813	42
2	409	118.096789725337	43
2	415	119.74717796847	44
2	425	123.744766865333	45
2	431	124.983776079461	46
2	435	125.024653850551	47
2	453	132.850540546122	48
2	459	134.59281356246	49
2	487	144.862494530485	50
2	493	146.060547323413	51
2	501	148.434892966173	52
2	529	157.700475308849	53
2	535	159.061321178436	54
2	543	160.123146618184	55
2	555	162.712272314369	56
2	565	164.935286592183	57
2	577	170.395164299695	58
2	581	170.424074805614	59
2	587	172.095145908692	60
2	635	186.775800748493	61
2	641	188.023395400343	62
2	649	189.610419788043	63
2	661	192.936126056089	64
2	685	201.208065292547	65
2	689	201.242286896081	66
2	697	202.885657217492	67
2	701	202.933272769477	68
2	707	203.970162319887	69
2	711	204.030957192726	70
2	717	205.73919595054	71
2	737	211.460815536641	72
2	745	213.446096920572	73
2	755	216.865463553486	74
2	767	219.953010227787	75
2	771	219.999109150725	76
2	781	223.05233144412	77
2	785	223.086845404255	78
2	793	224.707021147673	79
2	813	229.874758713226	80
2	819	231.613200575832	81
2	827	232.920213341404	82
2	835	235.969969670042	83
2	841	237.228666980023	84
3	13	4.07065896787	0
3	17	5.154769877277	1
3	23	6.613697903887	2
3	29	7.638329870667	3
3	35	8.939514691046	4
3	55	13.554546955676	5
3	71	19.824482196942	6
3	83	22.857852025325	7
3	91	25.700047895168	8
3	137	36.271935711294	9
3	149	38.539819783186	10
3	165	47.771106872689	11
3	169	49.655207224568	12
3	175	51.678369862168	13
3	191	54.438276713405	14
3	197	56.178635854203	15
3	227	62.570361471012	16
3	247	67.620180241623	17
3	271	75.740536296811	18
3	297	85.762531722796	19
3	305	86.848732139939	20
3	325	92.166758919781	21
3	357	100.225903321341	22
3	389	113.517549050624	23
3	395	115.381215334205	24
3	407	118.081418042853	25
3	447	131.538568541468	26
3	451	132.836405890318	27
3	491	146.048694845399	28
3	499	148.41933185472	29
3	527	157.676060623056	30
3	533	159.040132223018	31
3	541	160.108640090722	32
3	549	161.629995540962	33
3	553	162.698094761637	34
3	559	163.789187028518	35
3	563	164.899533894012	36
3	575	170.381266895241	37
3	585	172.075373875378	38
3	611	180.316330409985	39
3	633	186.761898601853	40
3	639	188.000124888591	41
3	647	189.595363071005	42
3	659	192.923189522012	43
3	695	202.83696326889	44
3	705	203.953396195569	45
3	715	205.728010791499	46
3	735	211.444107321911	47
3	743	213.424991334189	48
3	753	216.845433661559	49
3	775	221.903220574622	50
3	779	223.036211569659	51
3	817	231.585896636682	52
3	833	235.948445867354	53
3	847	238.28752732736	54
4	39	9.009418890177	0
4	123	33.025517478633	1
4	127	33.084865229868	2
4	179	51.717625121875	3
4	207	58.161380061264	4
4	211	58.193439247902	5
4	221	59.555800777147	6
4	243	65.859458526406	7
4	281	77.346954736993	8
4	301	85.804262338119	9
4	315	88.090362539502	10
4	341	96.874023594727	11
4	351	98.408680261955	12
4	377	108.484442591983	13
4	433	125.004876840148	14
4	509	150.055558370279	15
4	519	152.941580606223	16
4	537	159.074274360806	17
4	545	160.147440386303	18
4	579	170.409621158406	19
4	619	182.209919874647	20
4	643	188.037574497919	21
4	663	192.956604637163	22
4	687	201.23027494243	23
4	691	201.252975789008	24
4	699	202.910037407528	25
4	709	204.017453302785	26
4	719	205.793024277975	27
4	727	207.137230431444	28
4	739	211.487472266021	29
4	747	213.46229436841	30
4	769	219.972853248274	31
4	783	223.06754192919	32
4	787	223.103852573116	33
4	795	224.726613024085	34
4	807	228.687648154197	35
4	821	231.634426540604	36
4	843	237.240002238847	37
5	47	10.732230332441	0
5	79	21.365402549582	1
5	109	30.194379195797	2
5	115	31.308143972427	3
5	133	34.909866276424	4
5	219	59.533838559124	5
5	255	70.384939173501	6
5	265	73.009335921065	7
5	403	116.473802401507	8
5	467	137.561844268348	9
5	481	143.531760749916	10
5	507	150.042161952495	11
5	517	152.926263811049	12
5	595	175.40124259257	13
5	603	177.069116995819	14
5	617	182.183617542995	15
5	627	184.758954972912	16
5	655	191.481449772897	17
5	669	194.343225548694	18
5	725	207.115894509789	19
5	761	218.089236716257	20
5	805	228.661986225712	21
5	853	239.74156914332	22
6	49	10.757701468059	0
6	257	70.402201782938	1
6	597	175.417196512031	2
6	629	184.783386038248	3
6	671	194.361181929267	4
6	855	239.75429353542	5
7	244	65.869458526406	0
7	520	152.951580606223	1

