version 2
run General-2-20230921-23:29:44-9547
attr configname General
attr datetime 20230921-23:29:44
attr experiment General
attr inifile omnetpp.ini
attr iterationvars ""
attr iterationvarsf ""
attr measurement ""
attr network Network3
attr processid 9547
attr repetition 2
attr replication #2
attr resultdir results
attr runnumber 2
attr seedset 2
param Network3.node[*].transmissionTime "uniform(1s, 2s)"
param Network3.node[*].delayTime "uniform(0.01s, 0.2s)"
param Network3.node[*].processingTime exponential(0.01s)
param Network3.node[0].lossProbability 0
param Network3.node[1].lossProbability 0.3
param Network3.node[2].lossProbability 0.3
param Network3.node[3].lossProbability "0.3 / 2"
param Network3.node[4].lossProbability "0.3 / 2"
param Network3.node[6].lossProbability "0.3 * 2"
param Network3.node[7].lossProbability "0.3 * 2"
param Network3.node[5].lossProbability "0.3 * 3"

vector 0 Network3.node[0] txVector ETV
vector 1 Network3.node[2] txVector ETV
vector 2 Network3.node[4] txVector ETV
vector 3 Network3.node[1] txVector ETV
vector 4 Network3.node[3] txVector ETV
vector 5 Network3.node[7] txVector ETV
vector 6 Network3.node[6] txVector ETV
vector 7 Network3.node[5] rxVector ETV
0	1	0.092839031499	0
0	7	1.118765259413	1
0	9	2.273191934936	2
0	11	3.892462905282	3
0	13	5.377638820112	4
0	17	6.998772653304	5
0	23	8.512350771129	6
0	29	9.919658603631	7
0	31	11.347780934786	8
0	33	12.529507972085	9
0	37	14.126253280108	10
0	43	15.34655948637	11
0	51	17.00082566847	12
0	61	18.149390448834	13
0	69	19.586137711088	14
0	77	20.952480106865	15
0	85	22.946332117327	16
0	99	24.239355349698	17
0	107	26.165902098193	18
0	109	28.044202386885	19
0	117	29.706404408923	20
0	125	31.679315099743	21
0	127	32.893950847694	22
0	139	34.77315287806	23
0	145	35.879725411785	24
0	153	37.225963324326	25
0	159	39.052213151025	26
0	165	40.373531734588	27
0	169	41.484114880458	28
0	171	43.113474607019	29
0	173	44.288590996078	30
0	179	45.38387904574	31
0	185	46.410263191926	32
0	193	47.64238144203	33
0	197	49.295401951549	34
0	201	50.524975979486	35
0	209	51.555565457344	36
0	211	52.950716217067	37
0	213	54.400742939226	38
0	215	56.277009393805	39
0	225	57.279591968301	40
0	233	58.724166231015	41
0	235	60.432137405518	42
0	241	61.80517846045	43
0	249	63.286636618217	44
0	253	65.002383705014	45
0	259	66.942834200821	46
0	267	68.010569439986	47
0	273	69.392232017377	48
0	281	70.955608126958	49
0	287	72.771627281345	50
0	295	73.997923440784	51
0	301	75.754928080383	52
0	307	77.190011729737	53
0	315	79.177316585341	54
0	319	80.325992911374	55
0	325	81.367262028409	56
0	331	82.626742432378	57
0	337	84.37699569554	58
0	347	85.502777082398	59
0	349	87.220711899474	60
0	355	88.936442489056	61
0	361	89.99675009192	62
0	367	91.555700884918	63
0	375	92.92117927202	64
0	383	94.323974210089	65
0	393	95.346690794239	66
0	399	96.607410812071	67
0	401	98.552069689399	68
0	407	99.924962573471	69
0	411	101.058125605127	70
0	415	102.894869134547	71
0	421	104.745298965387	72
0	429	106.08266725556	73
0	439	108.0258379786	74
0	441	109.419242201392	75
0	447	110.482143737162	76
0	449	112.086284574606	77
0	455	113.550496919798	78
0	457	115.446901688604	79
0	465	116.564006719757	80
0	471	118.175096019656	81
0	477	119.176978677298	82
0	483	121.114891791969	83
0	489	122.789514567257	84
0	495	124.57531242773	85
0	501	126.295529073589	86
0	503	127.358334514332	87
0	509	129.265393946805	88
0	513	130.592788129832	89
0	517	131.754971574081	90
0	525	133.02159746715	91
0	527	134.2703317553	92
0	533	135.484272799707	93
0	539	136.70457445413	94
0	545	138.449449607191	95
0	551	140.25578481869	96
0	563	141.436553147875	97
0	577	143.416716718834	98
0	579	145.357899216723	99
0	585	146.522331718143	100
0	591	147.56709867811	101
0	597	148.681267278755	102
0	599	150.018986900823	103
0	601	151.141024819828	104
0	607	152.513796241275	105
0	609	154.315825242569	106
0	617	155.750917668707	107
0	623	157.630204623585	108
0	625	158.667292421005	109
0	631	159.984575775937	110
0	635	161.792542487868	111
0	637	163.171255635583	112
0	639	165.153334349181	113
0	645	166.16630504422	114
0	647	167.745507006786	115
0	659	168.774015580091	116
0	665	170.21501901515	117
0	673	171.76779897513	118
0	679	173.746382557574	119
0	689	175.508007009068	120
0	695	176.648748359663	121
0	697	177.91328797049	122
0	699	179.606461229055	123
0	701	181.197186043505	124
0	711	183.009703739332	125
0	713	184.295657535335	126
0	715	185.769962655632	127
0	719	186.990855623288	128
0	723	188.898790954864	129
0	731	190.108388373647	130
0	737	191.42710141886	131
0	747	192.514357037628	132
0	751	193.799343657233	133
0	753	195.374255649299	134
0	759	196.81893746743	135
0	765	198.690629005451	136
0	771	200.688908534376	137
0	773	201.992719831895	138
0	777	202.998292146269	139
0	787	204.241011262657	140
0	791	205.831764503401	141
0	797	207.542931168359	142
0	803	209.127109167185	143
0	809	211.09236867169	144
0	819	212.988222522913	145
0	821	214.867437011116	146
0	823	216.613908618708	147
0	825	218.593157908666	148
0	833	220.140753808684	149
0	839	221.280170898672	150
0	843	222.684769393896	151
0	849	224.151516184929	152
0	851	225.978324797956	153
0	853	227.253060761161	154
0	861	228.568952902008	155
0	863	229.670062901007	156
0	873	231.479406242745	157
0	879	233.274404424729	158
0	887	234.394019766266	159
0	893	236.072178787107	160
0	899	237.978352162077	161
0	903	239.47964094884	162
1	3	0.110816610738	0
1	39	14.140558437093	1
1	53	17.029950105294	2
1	101	24.249410948182	3
1	111	28.059104832746	4
1	119	29.717600989273	5
1	147	35.892787654687	6
1	161	39.067275744879	7
1	167	40.386734603475	8
1	175	44.30192833725	9
1	181	45.414258865351	10
1	195	47.668420251553	11
1	199	49.317597131627	12
1	217	56.292696517691	13
1	227	57.296676962204	14
1	243	61.828976574601	15
1	255	65.013461093431	16
1	269	68.054031037652	17
1	283	70.967016790464	18
1	303	75.767423998042	19
1	309	77.200424323419	20
1	317	79.187449839583	21
1	327	81.389051554209	22
1	339	84.394681807954	23
1	351	87.231784910245	24
1	369	91.574594868612	25
1	385	94.334523949364	26
1	431	106.100805954711	27
1	467	116.581412658121	28
1	491	122.805110180045	29
1	505	127.377006507969	30
1	515	130.614637649173	31
1	519	131.781226020951	32
1	587	146.540236870353	33
1	611	154.330465221141	34
1	633	159.997366128536	35
1	641	165.164669516316	36
1	667	170.228119516809	37
1	681	173.759499161492	38
1	703	181.208696414304	39
1	717	185.780404482946	40
1	739	191.455191638694	41
1	749	192.537470206539	42
1	767	198.703350687919	43
1	775	202.016406469182	44
1	789	204.25595244421	45
1	799	207.555119163562	46
1	805	209.145722538691	47
1	881	233.318870299887	48
1	895	236.089301681433	49
1	901	238.011261702483	50
1	905	239.500217931329	51
2	5	0.127447623789	0
2	41	14.155138735023	1
2	47	15.387206339947	2
2	55	17.046881744381	3
2	59	17.125261542114	4
2	93	23.056231199737	5
2	97	23.088664809603	6
2	103	24.259541976243	7
2	113	28.093694365089	8
2	121	29.760424358704	9
2	131	32.924796947925	10
2	135	32.980746535292	11
2	149	35.929258132472	12
2	157	37.273924509816	13
2	163	39.080096869808	14
2	177	44.319474759047	15
2	183	45.468921391544	16
2	189	46.443047628978	17
2	205	50.573546741613	18
2	219	56.312248251546	19
2	223	56.340286718474	20
2	229	57.310587898978	21
2	239	60.483653027271	22
2	245	61.840643801244	23
2	257	65.041912549308	24
2	271	68.064077781941	25
2	285	70.97772744622	26
2	299	74.023627079397	27
2	305	75.806878828158	28
2	311	77.213019938635	29
2	329	81.409299130489	30
2	335	82.671052690817	31
2	341	84.41795019438	32
2	345	84.441090247235	33
2	353	87.245884054726	34
2	359	88.964317668783	35
2	371	91.637479058976	36
2	387	94.366888757225	37
2	391	94.395811643108	38
2	397	95.37338623077	39
2	419	102.92448165944	40
2	425	104.798135811092	41
2	433	106.130852660949	42
2	437	106.167598534749	43
2	469	116.601953651851	44
2	493	122.817745637131	45
2	507	127.390960491952	46
2	521	131.801428570873	47
2	537	135.518675589539	48
2	543	136.764685211702	49
2	559	140.320160595513	50
2	567	141.460043638734	51
2	571	141.492090087816	52
2	575	141.603099881235	53
2	583	145.387824729548	54
2	589	146.554980569636	55
2	605	151.174157421793	56
2	613	154.349691951555	57
2	621	155.801783227421	58
2	643	165.184791020809	59
2	655	167.806342608624	60
2	663	168.811133343395	61
2	669	170.242294811914	62
2	677	171.804206471499	63
2	683	173.771693419393	64
2	687	173.815344243756	65
2	693	175.532086533475	66
2	705	181.222596613923	67
2	709	181.252886197805	68
2	727	188.947613492528	69
2	741	191.471025656818	70
2	745	191.503967934928	71
2	757	195.398891981977	72
2	769	198.719556798112	73
2	781	203.072988054677	74
2	785	203.106972528684	75
2	801	207.567943957906	76
2	807	209.160512034375	77
2	813	211.1289593302	78
2	817	211.169962158936	79
2	837	220.207286484558	80
2	871	229.738272961362	81
2	877	231.500664899192	82
2	883	233.335205276722	83
2	891	234.423914573875	84
2	897	236.099621200201	85
2	907	239.514452422919	86
3	15	5.395170809197	0
3	19	7.010811454474	1
3	25	8.524298575082	2
3	35	12.542069961219	3
3	45	15.372314187578	4
3	63	18.174376536068	5
3	71	19.615165772428	6
3	79	20.997741019489	7
3	87	22.963756896678	8
3	129	32.912927901911	9
3	141	34.787751154531	10
3	155	37.245733374915	11
3	187	46.430572114156	12
3	203	50.539394183772	13
3	237	60.44224600228	14
3	251	63.296721460763	15
3	261	66.962727687724	16
3	275	69.423152169454	17
3	289	72.801362086175	18
3	297	74.013186212083	19
3	321	80.341537887236	20
3	333	82.642795229689	21
3	357	88.947821841338	22
3	363	90.008748638343	23
3	377	92.931600479052	24
3	395	95.361843112829	25
3	403	98.563077547327	26
3	409	99.938977158481	27
3	413	101.0734531932	28
3	417	102.90748987058	29
3	423	104.785666737389	30
3	443	109.430273169891	31
3	451	112.10164033974	32
3	459	115.468589414429	33
3	473	118.185628910946	34
3	479	119.18842231014	35
3	485	121.13144497444	36
3	497	124.597726429313	37
3	511	129.308738731694	38
3	529	134.285191604923	39
3	535	135.502547757956	40
3	541	136.737945149575	41
3	547	138.459798373748	42
3	553	140.266713093749	43
3	565	141.449762274302	44
3	581	145.369683580294	45
3	593	147.596626226867	46
3	603	151.156718363951	47
3	619	155.760951078885	48
3	627	158.686100581874	49
3	649	167.762631010157	50
3	661	168.790237573426	51
3	675	171.783148979242	52
3	691	175.521658648471	53
3	721	187.00737463566	54
3	725	188.923614149865	55
3	733	190.122451483027	56
3	755	195.386888467584	57
3	761	196.831916109247	58
3	779	203.053599857474	59
3	793	205.875880614789	60
3	811	211.115368908812	61
3	827	218.61070396249	62
3	835	220.195620969483	63
3	841	221.292996881177	64
3	845	222.697078838179	65
3	855	227.265748056306	66
3	865	229.680229976684	67
3	875	231.490567229811	68
3	889	234.409402226684	69
4	21	7.023802229774	0
4	27	8.541335522974	1
4	65	18.187580975406	2
4	73	19.627663191068	3
4	81	21.019849048148	4
4	89	22.98810880194	5
4	143	34.822817603658	6
4	263	66.981173767402	7
4	277	69.448413851379	8
4	291	72.819781819243	9
4	323	80.366754879074	10
4	365	90.03676466715	11
4	379	92.960723690193	12
4	405	98.581621189663	13
4	445	109.456155575319	14
4	453	112.122103724947	15
4	461	115.493476558286	16
4	475	118.195653766033	17
4	481	119.208399145653	18
4	487	121.156397049218	19
4	499	124.612432570392	20
4	531	134.296152710528	21
4	549	138.482139448519	22
4	555	140.281371943278	23
4	595	147.614540751625	24
4	629	158.69974633334	25
4	651	167.781592927655	26
4	735	190.138026768337	27
4	763	196.84549510719	28
4	795	205.897339787946	29
4	829	218.630486720478	30
4	847	222.717328107286	31
4	857	227.279336892356	32
4	867	229.696064214741	33
5	49	15.444148536622	0
5	57	17.106888037469	1
5	75	19.640502445601	2
5	91	23.038944891054	3
5	95	23.070140038814	4
5	105	24.271936398327	5
5	115	28.108015617134	6
5	123	29.783833735923	7
5	133	32.969308360306	8
5	137	32.996213453361	9
5	151	35.947027584495	10
5	191	46.455498995625	11
5	207	50.584225929707	12
5	221	56.32796676945	13
5	231	57.322384179948	14
5	247	61.869527684683	15
5	265	66.996996780041	16
5	313	77.224650852681	17
5	343	84.428775733184	18
5	373	91.682728909758	19
5	381	92.970910724363	20
5	389	94.379585701693	21
5	427	104.808580448309	22
5	435	106.143776904218	23
5	523	131.819933888416	24
5	557	140.292066500356	25
5	561	140.333782845849	26
5	569	141.481052580674	27
5	573	141.579602111769	28
5	615	154.379009064971	29
5	653	167.795409933774	30
5	657	167.819374169825	31
5	671	170.2707380401	32
5	685	173.786629220453	33
5	707	181.239653971495	34
5	729	188.957847287955	35
5	743	191.490831613597	36
5	783	203.091741089788	37
5	815	211.150217825588	38
5	831	218.641686402374	39
5	869	229.720275756044	40
5	885	233.380701671099	41
6	67	18.205438165956	0
6	83	21.044329037981	1
6	279	69.484472571887	2
6	293	72.830553446587	3
6	463	115.524704137388	4
6	859	227.293544582698	5
7	280	69.494472571887	0
7	672	170.2807380401	1

