version 2
run General-4-20231008-01:39:27-9598
attr configname General
attr datetime 20231008-01:39:27
attr experiment General
attr inifile omnetpp.ini
attr iterationvars ""
attr iterationvarsf ""
attr measurement ""
attr network Reliability
attr processid 9598
attr repetition 4
attr replication #4
attr resultdir results
attr runnumber 4
attr seedset 4
param Reliability.node[*].transmissionTime "uniform(1s, 2s)"
param Reliability.node[*].delayTime "uniform(0.01s, 0.2s)"
param Reliability.node[*].processingTime exponential(0.01s)
param Reliability.node[*].lossProbability 0.0

vector 0 Reliability.node[0] txVector ETV
vector 1 Reliability.node[1] txVector ETV
vector 2 Reliability.node[3] txVector ETV
vector 3 Reliability.node[4] txVector ETV
vector 4 Reliability.node[5] rxVector ETV
vector 5 Reliability.node[2] txVector ETV
0	1	0.193735669288	0
0	9	2.094357123985	1
0	17	4.070631578718	2
0	25	5.642988070533	3
0	33	7.029559352588	4
0	41	8.974563197386	5
0	49	10.707943362803	6
0	57	11.74370155103	7
0	65	13.393506664238	8
0	73	14.745180375795	9
0	81	16.640681537488	10
0	89	18.326269740859	11
0	97	19.731094953526	12
0	105	21.400604827717	13
0	113	22.91533880184	14
0	121	24.86569346177	15
0	129	26.380347156586	16
0	137	28.030788265789	17
0	145	29.381073479928	18
0	153	30.752179662852	19
0	161	32.375748501547	20
0	169	33.37966939869	21
0	177	34.788296181398	22
0	185	35.798722853341	23
0	193	37.34201316714	24
0	201	38.956832616047	25
0	209	40.588524859088	26
0	217	42.078213996642	27
0	225	44.069010813643	28
0	233	45.295991833011	29
0	241	46.662327970999	30
0	249	48.259085858629	31
0	257	50.115269627112	32
0	265	52.105386547201	33
0	273	53.135160545275	34
0	281	54.526828603276	35
0	289	55.712037837987	36
0	297	57.117797051945	37
0	305	58.511043779242	38
0	313	60.219188653321	39
0	321	61.276394573661	40
0	329	63.201581686657	41
0	337	64.683348844448	42
0	345	66.681367336927	43
0	353	68.06494734638	44
0	361	69.230109121339	45
0	369	70.65276504044	46
0	377	72.226048644553	47
0	385	73.836155041275	48
0	393	75.651321430845	49
0	401	76.719656058043	50
0	409	78.601057653237	51
0	417	79.791187653938	52
0	425	81.009353324925	53
0	433	82.73934631717	54
0	441	84.23166224469	55
0	449	86.179720051741	56
0	457	87.719168244783	57
0	465	88.746268647179	58
0	473	90.73669764578	59
0	481	91.800235019919	60
0	489	93.544204509274	61
0	497	94.830891544155	62
0	505	95.908762748043	63
0	513	97.611892626078	64
0	521	98.740602121146	65
0	529	100.25734888382	66
0	537	101.644640440044	67
0	545	103.29939638606	68
0	553	105.222509713068	69
0	561	107.094893695942	70
0	569	108.947707242488	71
0	577	110.482811512115	72
0	585	112.090318269251	73
0	593	113.158126434699	74
0	601	114.731908308497	75
0	609	115.919601025215	76
0	617	117.571992499909	77
0	625	119.209244610897	78
0	633	120.394510890745	79
0	641	122.23792950289	80
0	649	124.101109842925	81
0	657	125.295508751568	82
0	665	127.279750691183	83
0	673	128.865434067246	84
0	681	130.246203839701	85
0	689	131.633409717275	86
0	697	133.254992552489	87
0	705	135.213111344414	88
0	713	136.722879042771	89
0	721	138.008735813123	90
0	729	139.332497129139	91
0	737	140.991396194246	92
0	745	142.238690033943	93
0	753	143.824177360783	94
0	761	145.596492702995	95
0	769	146.615063601794	96
0	777	148.344260433611	97
0	785	150.259142752892	98
0	793	151.273038758353	99
0	801	152.421024338265	100
0	809	154.006712101555	101
0	817	155.08462157535	102
0	825	156.131687169118	103
0	833	157.605651252825	104
0	841	159.363779675836	105
0	849	160.937152375156	106
0	857	161.967052622853	107
0	865	163.576316173576	108
0	873	164.598725449449	109
0	881	165.857034230527	110
0	889	167.768371127934	111
0	897	168.854674538287	112
0	905	169.91867210033	113
0	913	171.463995561391	114
0	921	173.117319335151	115
0	929	174.409264133699	116
0	937	175.43433042049	117
0	945	177.106182894591	118
0	953	178.63257930257	119
0	961	180.135748121344	120
0	969	181.43276723839	121
0	977	183.191887298521	122
0	985	185.097928594487	123
0	993	186.623779247903	124
0	1001	188.24501873708	125
0	1009	190.173514821722	126
0	1017	191.489889590924	127
0	1025	192.577798298483	128
0	1033	193.731157543526	129
0	1041	195.715809610362	130
0	1049	197.267498943179	131
0	1057	198.786073860635	132
0	1065	200.337523885925	133
0	1073	201.411336971602	134
0	1081	203.355774862847	135
0	1089	205.331773650289	136
0	1097	207.292698545536	137
0	1105	208.831303966153	138
0	1113	210.643250388015	139
0	1121	211.899165707329	140
0	1129	213.484659216754	141
0	1137	214.692571462054	142
0	1145	215.898341188129	143
0	1153	216.918913486335	144
0	1161	218.220376687744	145
0	1169	219.487437148034	146
0	1177	220.652337560584	147
0	1185	222.427637528782	148
0	1193	223.453097080966	149
0	1201	224.590426429329	150
0	1209	225.94126233311	151
0	1217	227.589787239596	152
0	1225	229.435193913212	153
0	1233	231.199425629727	154
0	1241	232.311586307981	155
0	1249	234.079595568045	156
0	1257	235.561185091189	157
0	1265	236.792732193987	158
0	1273	237.886575556747	159
0	1281	239.369757008893	160
1	3	0.205631491707	0
1	11	2.104419621445	1
1	19	4.085117857454	2
1	27	5.653439718533	3
1	35	7.045471563757	4
1	43	8.989813184219	5
1	51	10.720540954123	6
1	59	11.758758273674	7
1	67	13.409813090623	8
1	75	14.75968793384	9
1	83	16.680070148227	10
1	91	18.340292061836	11
1	99	19.741928543965	12
1	107	21.419857221993	13
1	115	22.929908012348	14
1	123	24.884171407047	15
1	131	26.418039736162	16
1	139	28.0428834556	17
1	147	29.392546026263	18
1	155	30.763048148942	19
1	163	32.391953592585	20
1	171	33.418457340011	21
1	179	34.800908490168	22
1	187	35.809067500966	23
1	195	37.353460484784	24
1	203	38.970229906992	25
1	211	40.618957277683	26
1	219	42.08897905375	27
1	227	44.093881761056	28
1	235	45.324346819254	29
1	243	46.675620132267	30
1	251	48.290644581211	31
1	259	50.146814932701	32
1	267	52.123103726428	33
1	275	53.148761171328	34
1	283	54.542070790212	35
1	291	55.757687946371	36
1	299	57.130949167246	37
1	307	58.521301078186	38
1	315	60.23714721264	39
1	323	61.288384859728	40
1	331	63.222366672998	41
1	339	64.71142008573	42
1	347	66.691805795555	43
1	355	68.07838408539	44
1	363	69.260908525754	45
1	371	70.667901654991	46
1	379	72.23864664106	47
1	387	73.857098956569	48
1	395	75.66571170091	49
1	403	76.761299875767	50
1	411	78.621242635156	51
1	419	79.834834938506	52
1	427	81.025796207882	53
1	435	82.788687744406	54
1	443	84.261909379664	55
1	451	86.194155349505	56
1	459	87.737441515197	57
1	467	88.75774817134	58
1	475	90.765551294652	59
1	483	91.817399104352	60
1	491	93.56245672892	61
1	499	94.841484600802	62
1	507	95.920361231951	63
1	515	97.646925365239	64
1	523	98.757272376815	65
1	531	100.275857809385	66
1	539	101.659313119042	67
1	547	103.315696576847	68
1	555	105.236212975438	69
1	563	107.122728716238	70
1	571	108.990227381267	71
1	579	110.51082027904	72
1	587	112.132934691577	73
1	595	113.170828031518	74
1	603	114.745954836936	75
1	611	115.946089985322	76
1	619	117.595366843838	77
1	627	119.219717351443	78
1	635	120.418275197577	79
1	643	122.248269485972	80
1	651	124.114738807335	81
1	659	125.330842180904	82
1	667	127.293234458192	83
1	675	128.878204255224	84
1	683	130.263026616026	85
1	691	131.649259198392	86
1	699	133.286660681164	87
1	707	135.228086787809	88
1	715	136.734567628335	89
1	723	138.02231045494	90
1	731	139.358562864999	91
1	739	141.007548686316	92
1	747	142.249101984677	93
1	755	143.84906459623	94
1	763	145.63287528812	95
1	771	146.642553635293	96
1	779	148.369889895744	97
1	787	150.313527808854	98
1	795	151.284502600477	99
1	803	152.432402033241	100
1	811	154.027329223145	101
1	819	155.094932063643	102
1	827	156.157286622972	103
1	835	157.628683489321	104
1	843	159.382057407888	105
1	851	160.948162133757	106
1	859	161.978345291098	107
1	867	163.604830803544	108
1	875	164.620339805122	109
1	883	165.869558877581	110
1	891	167.785316931669	111
1	899	168.867521639202	112
1	907	169.948549636008	113
1	915	171.479508636175	114
1	923	173.128998474402	115
1	931	174.421837114537	116
1	939	175.445630523279	117
1	947	177.122474970567	118
1	955	178.662540814931	119
1	963	180.146393307691	120
1	971	181.463870524729	121
1	979	183.211431226351	122
1	987	185.121002370724	123
1	995	186.640502120741	124
1	1003	188.256601422129	125
1	1011	190.185057690895	126
1	1019	191.500331257335	127
1	1027	192.613442179427	128
1	1035	193.744385957567	129
1	1043	195.738681100327	130
1	1051	197.280202003383	131
1	1059	198.797323317611	132
1	1067	200.37876350324	133
1	1075	201.426687887795	134
1	1083	203.384687715972	135
1	1091	205.357884555448	136
1	1099	207.313693801276	137
1	1107	208.847966161921	138
1	1115	210.662529229255	139
1	1123	211.912351341152	140
1	1131	213.496565356995	141
1	1139	214.703621524343	142
1	1147	215.920354079831	143
1	1155	216.931702918236	144
1	1163	218.240736381716	145
1	1171	219.505854677795	146
1	1179	220.684171084454	147
1	1187	222.441992177747	148
1	1195	223.477652366701	149
1	1203	224.60949385215	150
1	1211	225.956045967976	151
1	1219	227.622914409044	152
1	1227	229.455087480406	153
1	1235	231.209828737279	154
1	1243	232.332603143611	155
1	1251	234.092047666909	156
1	1259	235.580922550722	157
1	1267	236.815246282332	158
1	1275	237.904062188504	159
1	1283	239.382901111125	160
2	5	0.228177698444	0
2	13	2.137768486183	1
2	21	4.096907237256	2
2	69	13.422739094136	3
2	77	14.786342987948	4
2	133	26.429649958322	5
2	141	28.05674913814	6
2	149	29.407976657397	7
2	157	30.780032722946	8
2	181	34.847131170045	9
2	197	37.376489927553	10
2	205	38.98550005817	11
2	221	42.112997416884	12
2	229	44.115536376493	13
2	237	45.337415611011	14
2	245	46.686529402008	15
2	261	50.160557577702	16
2	269	52.148684166804	17
2	277	53.176180636714	18
2	285	54.556864613168	19
2	293	55.768226542523	20
2	309	58.560929060462	21
2	341	64.724057855969	22
2	349	66.70383332402	23
2	373	70.686919325497	24
2	381	72.268678445264	25
2	389	73.869318594687	26
2	405	76.790952527707	27
2	429	81.036302035723	28
2	437	82.811551601519	29
2	477	90.780623745762	30
2	509	95.964037690711	31
2	517	97.666243069991	32
2	525	98.785762566184	33
2	533	100.309602393056	34
2	549	103.335772173705	35
2	557	105.249990263519	36
2	581	110.524982293775	37
2	605	114.756548216835	38
2	613	115.961139493167	39
2	621	117.608335221379	40
2	629	119.26289035643	41
2	653	124.135439348654	42
2	669	127.31800532251	43
2	677	128.894950884188	44
2	685	130.297112815237	45
2	693	131.682642119463	46
2	725	138.043913181434	47
2	733	139.376037381271	48
2	749	142.263905029468	49
2	765	145.645664220291	50
2	781	148.397836246826	51
2	805	152.480716346477	52
2	829	156.210647291963	53
2	845	159.429305231592	54
2	853	160.996327524455	55
2	869	163.615916914591	56
2	877	164.645067494077	57
2	893	167.795493429513	58
2	901	168.879711512608	59
2	909	169.966355254165	60
2	917	171.493878839711	61
2	925	173.149993003066	62
2	941	175.461759062815	63
2	949	177.141177828936	64
2	989	185.143469576446	65
2	1013	190.195720868838	66
2	1021	191.511805946467	67
2	1045	195.760466734247	68
2	1053	197.29047420833	69
2	1077	201.437756033535	70
2	1085	203.395078597159	71
2	1109	208.867200408457	72
2	1133	213.528165572097	73
2	1141	214.743880818921	74
2	1157	216.945582244749	75
2	1173	219.531826415489	76
2	1229	229.470267675069	77
2	1261	235.600318457423	78
2	1269	236.8263033719	79
2	1277	237.917149342905	80
2	1285	239.403447301717	81
3	7	0.247279696778	0
3	15	2.162881753952	1
3	23	4.123617591557	2
3	31	5.719857935501	3
3	39	7.068184786959	4
3	47	9.037614085618	5
3	55	10.751772494002	6
3	63	11.783253845404	7
3	71	13.435654785096	8
3	79	14.803230439202	9
3	87	16.729779555051	10
3	95	18.39878094252	11
3	103	19.767196653207	12
3	111	21.470055731086	13
3	119	22.954072962727	14
3	127	24.938572905817	15
3	135	26.465879047979	16
3	143	28.076396858064	17
3	151	29.420123936495	18
3	159	30.807521037206	19
3	167	32.427269910811	20
3	175	33.445666046664	21
3	183	34.867987215671	22
3	191	35.840218966112	23
3	199	37.393258486378	24
3	207	38.999871869047	25
3	215	40.654030410388	26
3	223	42.14094193014	27
3	231	44.129209642823	28
3	239	45.374794138566	29
3	247	46.70823430822	30
3	255	48.3426513609	31
3	263	50.171545627566	32
3	271	52.168469904594	33
3	279	53.199934119326	34
3	287	54.588591962999	35
3	295	55.781380009172	36
3	303	57.156521083934	37
3	311	58.573965037308	38
3	319	60.290572078913	39
3	327	61.327451931809	40
3	335	63.263661519781	41
3	343	64.734703954867	42
3	351	66.722212024351	43
3	359	68.110956863522	44
3	367	69.312868639638	45
3	375	70.700592422533	46
3	383	72.278894051355	47
3	391	73.880033226397	48
3	399	75.717348857233	49
3	407	76.814447914252	50
3	415	78.670162872619	51
3	423	79.879681032284	52
3	431	81.047944760961	53
3	439	82.831920613898	54
3	447	84.294745092078	55
3	455	86.239333601439	56
3	463	87.785265981009	57
3	471	88.786404836787	58
3	479	90.814538945032	59
3	487	91.888772424979	60
3	495	93.597265756514	61
3	503	94.908402271748	62
3	511	95.978749771334	63
3	519	97.68672126984	64
3	527	98.802654773359	65
3	535	100.321461085446	66
3	543	101.692838549251	67
3	551	103.351596455546	68
3	559	105.263399051789	69
3	567	107.1536251362	70
3	575	109.044764949139	71
3	583	110.542214725329	72
3	591	112.163650589725	73
3	599	113.199944361781	74
3	607	114.77430593481	75
3	615	115.972212734426	76
3	623	117.632802311757	77
3	631	119.273350070165	78
3	639	120.4658204033	79
3	647	122.289809567263	80
3	655	124.159931408963	81
3	663	125.381589342253	82
3	671	127.357843655143	83
3	679	128.921024605069	84
3	687	130.323724458026	85
3	695	131.728245941925	86
3	703	133.333604003536	87
3	711	135.254544541701	88
3	719	136.799666864394	89
3	727	138.06913087826	90
3	735	139.425596939588	91
3	743	141.034519336941	92
3	751	142.274576040628	93
3	759	143.890044530233	94
3	767	145.661508218197	95
3	775	146.670029898758	96
3	783	148.408242482301	97
3	791	150.389702568373	98
3	799	151.319384178187	99
3	807	152.4994515348	100
3	815	154.072795686014	101
3	823	155.165660413989	102
3	831	156.235268779044	103
3	839	157.658293129334	104
3	847	159.468636474474	105
3	855	161.020279416164	106
3	863	162.047487721675	107
3	871	163.632490091086	108
3	879	164.65860589944	109
3	887	165.895942731057	110
3	895	167.807477086585	111
3	903	168.890300446468	112
3	911	169.97960283029	113
3	919	171.511289635537	114
3	927	173.161333879676	115
3	935	174.443423390123	116
3	943	175.47223140212	117
3	951	177.151798572999	118
3	959	178.698128329862	119
3	967	180.172589553307	120
3	975	181.50110031649	121
3	983	183.250140842048	122
3	991	185.162623549688	123
3	999	186.674109542344	124
3	1007	188.286476081233	125
3	1015	190.214454169864	126
3	1023	191.527251548049	127
3	1031	192.653152926169	128
3	1039	193.787100369022	129
3	1047	195.786747369998	130
3	1055	197.312958050421	131
3	1063	198.857293567655	132
3	1071	200.406042900336	133
3	1079	201.450919549485	134
3	1087	203.41084480762	135
3	1095	205.384569487316	136
3	1103	207.352526654579	137
3	1111	208.882558765136	138
3	1119	210.697801479321	139
3	1127	211.954553391047	140
3	1135	213.552009059603	141
3	1143	214.757869875576	142
3	1151	215.94578567481	143
3	1159	216.963451839067	144
3	1167	218.278208578111	145
3	1175	219.544960731146	146
3	1183	220.736116427972	147
3	1191	222.468756418443	148
3	1199	223.540611164129	149
3	1207	224.645037907216	150
3	1215	225.988514809687	151
3	1223	227.698787490717	152
3	1231	229.486963784583	153
3	1239	231.242216770964	154
3	1247	232.393676407193	155
3	1255	234.115719189932	156
3	1263	235.617710334476	157
3	1271	236.836320950465	158
3	1279	237.939823549782	159
3	1287	239.41667303839	160
4	8	0.257279696778	0
4	16	2.172881753952	1
4	24	4.133617591557	2
4	32	5.729857935501	3
4	40	7.078184786959	4
4	48	9.047614085618	5
4	56	10.761772494002	6
4	64	11.793253845404	7
4	72	13.445654785096	8
4	80	14.813230439202	9
4	88	16.739779555051	10
4	96	18.40878094252	11
4	104	19.777196653207	12
4	112	21.480055731086	13
4	120	22.964072962727	14
4	128	24.948572905817	15
4	136	26.475879047979	16
4	144	28.086396858064	17
4	152	29.430123936495	18
4	160	30.817521037206	19
4	168	32.437269910811	20
4	176	33.455666046664	21
4	184	34.877987215671	22
4	192	35.850218966112	23
4	200	37.403258486378	24
4	208	39.009871869047	25
4	216	40.664030410388	26
4	224	42.15094193014	27
4	232	44.139209642823	28
4	240	45.384794138566	29
4	248	46.71823430822	30
4	256	48.3526513609	31
4	264	50.181545627566	32
4	272	52.178469904594	33
4	280	53.209934119326	34
4	288	54.598591962999	35
4	296	55.791380009172	36
4	304	57.166521083934	37
4	312	58.583965037308	38
4	320	60.300572078913	39
4	328	61.337451931809	40
4	336	63.273661519781	41
4	344	64.744703954867	42
4	352	66.732212024351	43
4	360	68.120956863522	44
4	368	69.322868639638	45
4	376	70.710592422533	46
4	384	72.288894051355	47
4	392	73.890033226397	48
4	400	75.727348857233	49
4	408	76.824447914252	50
4	416	78.680162872619	51
4	424	79.889681032284	52
4	432	81.057944760961	53
4	440	82.841920613898	54
4	448	84.304745092078	55
4	456	86.249333601439	56
4	464	87.795265981009	57
4	472	88.796404836787	58
4	480	90.824538945032	59
4	488	91.898772424979	60
4	496	93.607265756514	61
4	504	94.918402271748	62
4	512	95.988749771334	63
4	520	97.69672126984	64
4	528	98.812654773359	65
4	536	100.331461085446	66
4	544	101.702838549251	67
4	552	103.361596455546	68
4	560	105.273399051789	69
4	568	107.1636251362	70
4	576	109.054764949139	71
4	584	110.552214725329	72
4	592	112.173650589725	73
4	600	113.209944361781	74
4	608	114.78430593481	75
4	616	115.982212734426	76
4	624	117.642802311757	77
4	632	119.283350070165	78
4	640	120.4758204033	79
4	648	122.299809567263	80
4	656	124.169931408963	81
4	664	125.391589342253	82
4	672	127.367843655143	83
4	680	128.931024605069	84
4	688	130.333724458026	85
4	696	131.738245941925	86
4	704	133.343604003536	87
4	712	135.264544541701	88
4	720	136.809666864394	89
4	728	138.07913087826	90
4	736	139.435596939588	91
4	744	141.044519336941	92
4	752	142.284576040628	93
4	760	143.900044530233	94
4	768	145.671508218197	95
4	776	146.680029898758	96
4	784	148.418242482301	97
4	792	150.399702568373	98
4	800	151.329384178187	99
4	808	152.5094515348	100
4	816	154.082795686014	101
4	824	155.175660413989	102
4	832	156.245268779044	103
4	840	157.668293129334	104
4	848	159.478636474474	105
4	856	161.030279416164	106
4	864	162.057487721675	107
4	872	163.642490091086	108
4	880	164.66860589944	109
4	888	165.905942731057	110
4	896	167.817477086585	111
4	904	168.900300446468	112
4	912	169.98960283029	113
4	920	171.521289635537	114
4	928	173.171333879676	115
4	936	174.453423390123	116
4	944	175.48223140212	117
4	952	177.161798572999	118
4	960	178.708128329862	119
4	968	180.182589553307	120
4	976	181.51110031649	121
4	984	183.260140842048	122
4	992	185.172623549688	123
4	1000	186.684109542344	124
4	1008	188.296476081233	125
4	1016	190.224454169864	126
4	1024	191.537251548049	127
4	1032	192.663152926169	128
4	1040	193.797100369022	129
4	1048	195.796747369998	130
4	1056	197.322958050421	131
4	1064	198.867293567655	132
4	1072	200.416042900336	133
4	1080	201.460919549485	134
4	1088	203.42084480762	135
4	1096	205.394569487316	136
4	1104	207.362526654579	137
4	1112	208.892558765136	138
4	1120	210.707801479321	139
4	1128	211.964553391047	140
4	1136	213.562009059603	141
4	1144	214.767869875576	142
4	1152	215.95578567481	143
4	1160	216.973451839067	144
4	1168	218.288208578111	145
4	1176	219.554960731146	146
4	1184	220.746116427972	147
4	1192	222.478756418443	148
4	1200	223.550611164129	149
4	1208	224.655037907216	150
4	1216	225.998514809687	151
4	1224	227.708787490717	152
4	1232	229.496963784583	153
4	1240	231.252216770964	154
4	1248	232.403676407193	155
4	1256	234.125719189932	156
4	1264	235.627710334476	157
4	1272	236.846320950465	158
4	1280	237.949823549782	159
4	1288	239.42667303839	160
5	29	5.680103087666	0
5	37	7.056250623368	1
5	45	9.020238995362	2
5	53	10.737972821137	3
5	61	11.77128184151	4
5	85	16.707800787327	5
5	93	18.369047099694	6
5	101	19.754744930478	7
5	109	21.458672453377	8
5	117	22.940405527076	9
5	125	24.91195798967	10
5	165	32.403277651375	11
5	173	33.429402004317	12
5	189	35.819236090753	13
5	213	40.630953560312	14
5	253	48.331003963403	15
5	301	57.143845987505	16
5	317	60.25464469284	17
5	325	61.311721889075	18
5	333	63.233553093102	19
5	357	68.090086420982	20
5	365	69.280913147371	21
5	397	75.702823646655	22
5	413	78.649634561826	23
5	421	79.868636319894	24
5	445	84.276276647689	25
5	453	86.205384131803	26
5	461	87.764548586161	27
5	469	88.775345925362	28
5	485	91.829166526654	29
5	493	93.58645616354	30
5	501	94.882510192213	31
5	541	101.676068305409	32
5	565	107.139713640338	33
5	573	109.02294464631	34
5	589	112.152508996124	35
5	597	113.189301400876	36
5	637	120.445552511361	37
5	645	122.265098874962	38
5	661	125.362686854963	39
5	701	133.305521645181	40
5	709	135.238278808448	41
5	717	136.785231797681	42
5	741	141.023619902391	43
5	757	143.864421206852	44
5	773	146.653269640463	45
5	789	150.361076722896	46
5	797	151.30059513591	47
5	813	154.041334694996	48
5	821	155.151674926491	49
5	837	157.639933087784	50
5	861	162.026253710839	51
5	885	165.884761963524	52
5	933	174.432003527083	53
5	957	178.683701874779	54
5	965	180.160037594348	55
5	973	181.489089620246	56
5	981	183.22539283503	57
5	997	186.653722287644	58
5	1005	188.267953950628	59
5	1029	192.63601429131	60
5	1037	193.76373483963	61
5	1061	198.821561734613	62
5	1069	200.391507432787	63
5	1093	205.372550930576	64
5	1101	207.337283015783	65
5	1117	210.685547163089	66
5	1125	211.931916682985	67
5	1149	215.932217665224	68
5	1165	218.267683892037	69
5	1181	220.695371270345	70
5	1189	222.457219358511	71
5	1197	223.503743438247	72
5	1205	224.624442714107	73
5	1213	225.966180237067	74
5	1221	227.65479709206	75
5	1237	231.222917012006	76
5	1245	232.352393832096	77
5	1253	234.102473365229	78

