version 2
run General-0-20231004-16:53:49-7353
attr configname General
attr datetime 20231004-16:53:49
attr experiment General
attr inifile omnetpp.ini
attr iterationvars ""
attr iterationvarsf ""
attr measurement ""
attr network Multihop
attr processid 7353
attr repetition 0
attr replication #0
attr resultdir results
attr runnumber 0
attr seedset 0
param Multihop.node[*].transmissionTime 1s
param Multihop.node[*].delayTime "uniform(0.01s, 0.2s)"
param Multihop.node[*].processingTime exponential(0.01s)
param Multihop.node[*].lossProbability 0.50

vector 0 Multihop.node[0] txVector ETV
vector 1 Multihop.node[1] txVector ETV
vector 2 Multihop.node[2] txVector ETV
vector 3 Multihop.node[3] txVector ETV
vector 4 Multihop.node[4] txVector ETV
vector 5 Multihop.node[5] rxVector ETV
0	1	0.114274565438	0
0	11	1.114274565438	1
0	15	2.114274565438	2
0	17	3.114274565438	3
0	23	4.114274565438	4
0	25	5.114274565438	5
0	35	6.114274565438	6
0	37	7.114274565438	7
0	39	8.114274565438	8
0	43	9.114274565438	9
0	53	10.114274565438	10
0	63	11.114274565438	11
0	65	12.114274565438	12
0	71	13.114274565438	13
0	73	14.114274565438	14
0	75	15.114274565438	15
0	77	16.114274565438	16
0	79	17.114274565438	17
0	83	18.114274565438	18
0	85	19.114274565438	19
0	89	20.114274565438	20
0	91	21.114274565438	21
0	101	22.114274565438	22
0	103	23.114274565438	23
0	105	24.114274565438	24
0	111	25.114274565438	25
0	113	26.114274565438	26
0	119	27.114274565438	27
0	121	28.114274565438	28
0	123	29.114274565438	29
0	125	30.114274565438	30
0	131	31.114274565438	31
0	135	32.114274565438	32
0	145	33.114274565438	33
0	149	34.114274565438	34
0	151	35.114274565438	35
0	153	36.114274565438	36
0	155	37.114274565438	37
0	157	38.114274565438	38
0	161	39.114274565438	39
0	163	40.114274565438	40
0	167	41.114274565438	41
0	169	42.114274565438	42
0	177	43.114274565438	43
0	179	44.114274565438	44
0	189	45.114274565438	45
0	197	46.114274565438	46
0	199	47.114274565438	47
0	201	48.114274565438	48
0	205	49.114274565438	49
0	207	50.114274565438	50
0	209	51.114274565438	51
0	211	52.114274565438	52
0	219	53.114274565438	53
0	225	54.114274565438	54
0	233	55.114274565438	55
0	237	56.114274565438	56
0	239	57.114274565438	57
0	243	58.114274565438	58
0	249	59.114274565438	59
0	251	60.114274565438	60
0	253	61.114274565438	61
0	257	62.114274565438	62
0	259	63.114274565438	63
0	263	64.114274565438	64
0	265	65.114274565438	65
0	269	66.114274565438	66
0	273	67.114274565438	67
0	277	68.114274565438	68
0	281	69.114274565438	69
0	287	70.114274565438	70
0	293	71.114274565438	71
0	299	72.114274565438	72
0	303	73.114274565438	73
0	305	74.114274565438	74
0	309	75.114274565438	75
0	319	76.114274565438	76
0	323	77.114274565438	77
0	327	78.114274565438	78
0	331	79.114274565438	79
0	333	80.114274565438	80
0	335	81.114274565438	81
0	337	82.114274565438	82
0	341	83.114274565438	83
0	343	84.114274565438	84
0	345	85.114274565438	85
0	349	86.114274565438	86
0	353	87.114274565438	87
0	355	88.114274565438	88
0	357	89.114274565438	89
0	367	90.114274565438	90
0	369	91.114274565438	91
0	371	92.114274565438	92
0	373	93.114274565438	93
0	377	94.114274565438	94
0	379	95.114274565438	95
0	381	96.114274565438	96
0	385	97.114274565438	97
0	391	98.114274565438	98
0	393	99.114274565438	99
0	401	100.114274565438	100
0	405	101.114274565438	101
0	407	102.114274565438	102
0	411	103.114274565438	103
0	413	104.114274565438	104
0	419	105.114274565438	105
0	423	106.114274565438	106
0	425	107.114274565438	107
0	427	108.114274565438	108
0	431	109.114274565438	109
0	433	110.114274565438	110
0	435	111.114274565438	111
0	445	112.114274565438	112
0	453	113.114274565438	113
0	457	114.114274565438	114
0	459	115.114274565438	115
0	461	116.114274565438	116
0	463	117.114274565438	117
0	465	118.114274565438	118
0	467	119.114274565438	119
0	471	120.114274565438	120
0	481	121.114274565438	121
0	483	122.114274565438	122
0	487	123.114274565438	123
0	491	124.114274565438	124
0	495	125.114274565438	125
0	505	126.114274565438	126
0	509	127.114274565438	127
0	511	128.114274565438	128
0	513	129.114274565438	129
0	515	130.114274565438	130
0	517	131.114274565438	131
0	523	132.114274565438	132
0	529	133.114274565438	133
0	531	134.114274565438	134
0	533	135.114274565438	135
0	535	136.114274565438	136
0	537	137.114274565438	137
0	539	138.114274565438	138
0	549	139.114274565438	139
0	551	140.114274565438	140
0	555	141.114274565438	141
0	557	142.114274565438	142
0	565	143.114274565438	143
0	567	144.114274565438	144
0	569	145.114274565438	145
0	573	146.114274565438	146
0	575	147.114274565438	147
0	577	148.114274565438	148
0	579	149.114274565438	149
0	583	150.114274565438	150
0	589	151.114274565438	151
0	597	152.114274565438	152
0	599	153.114274565438	153
0	603	154.114274565438	154
0	607	155.114274565438	155
0	611	156.114274565438	156
0	615	157.114274565438	157
0	619	158.114274565438	158
0	621	159.114274565438	159
0	623	160.114274565438	160
0	627	161.114274565438	161
0	629	162.114274565438	162
0	633	163.114274565438	163
0	635	164.114274565438	164
0	641	165.114274565438	165
0	643	166.114274565438	166
0	645	167.114274565438	167
0	651	168.114274565438	168
0	655	169.114274565438	169
0	657	170.114274565438	170
0	659	171.114274565438	171
0	663	172.114274565438	172
0	665	173.114274565438	173
0	669	174.114274565438	174
0	671	175.114274565438	175
0	673	176.114274565438	176
0	675	177.114274565438	177
0	677	178.114274565438	178
0	679	179.114274565438	179
0	681	180.114274565438	180
0	685	181.114274565438	181
0	693	182.114274565438	182
0	699	183.114274565438	183
0	703	184.114274565438	184
0	705	185.114274565438	185
0	707	186.114274565438	186
0	711	187.114274565438	187
0	713	188.114274565438	188
0	717	189.114274565438	189
0	723	190.114274565438	190
0	727	191.114274565438	191
0	729	192.114274565438	192
0	739	193.114274565438	193
0	743	194.114274565438	194
0	747	195.114274565438	195
0	757	196.114274565438	196
0	761	197.114274565438	197
0	765	198.114274565438	198
0	775	199.114274565438	199
1	3	0.136833873018	0
1	13	1.129125847075	1
1	19	3.124858412129	2
1	27	5.140996677441	3
1	41	8.124478821322	4
1	45	9.155776264725	5
1	55	10.130463860034	6
1	67	12.153218770218	7
1	81	17.137627467284	8
1	87	19.125727345711	9
1	93	21.125895930332	10
1	107	24.130019889505	11
1	115	26.135263690114	12
1	127	30.128064185081	13
1	133	31.124666397002	14
1	137	32.1688195339	15
1	147	33.132993723974	16
1	159	38.126005839999	17
1	165	40.134955287409	18
1	171	42.126463371403	19
1	181	44.142472754631	20
1	191	45.124847834702	21
1	203	48.125555133091	22
1	213	52.128101574927	23
1	221	53.132603000599	24
1	227	54.131682154942	25
1	235	55.127527969593	26
1	241	57.142747841948	27
1	245	58.136873903539	28
1	255	61.132322539436	29
1	261	63.128891874398	30
1	267	65.132705395759	31
1	271	66.137562144176	32
1	275	67.129953606973	33
1	279	68.132858495116	34
1	283	69.146911901197	35
1	289	70.154797382007	36
1	295	71.16270463127	37
1	301	72.141083787483	38
1	307	74.145569559399	39
1	311	75.128031953862	40
1	321	76.155529249015	41
1	325	77.129297673421	42
1	329	78.133598594242	43
1	339	82.135067767425	44
1	347	85.138104357503	45
1	351	86.125730305222	46
1	359	89.128644845576	47
1	375	93.125797501691	48
1	383	96.14652371201	49
1	387	97.131975334033	50
1	395	99.128618021997	51
1	403	100.144533653609	52
1	409	102.133834229677	53
1	415	104.143113854304	54
1	421	105.12578247554	55
1	429	108.136228951101	56
1	437	111.12479369096	57
1	447	112.128737093643	58
1	455	113.130999170606	59
1	469	119.130500538878	60
1	473	120.128511136452	61
1	485	122.133989387019	62
1	489	123.136284274503	63
1	493	124.151488047997	64
1	497	125.135640530391	65
1	507	126.129353216665	66
1	519	131.132704353192	67
1	525	132.126854693077	68
1	541	138.136193146475	69
1	553	140.135649950493	70
1	559	142.131965763449	71
1	571	145.147963747146	72
1	581	149.145610198313	73
1	585	150.129110949313	74
1	591	151.13160824217	75
1	601	153.145932202247	76
1	605	154.154806412134	77
1	609	155.130879596235	78
1	613	156.153719368212	79
1	617	157.145502031977	80
1	625	160.13157684209	81
1	631	162.126599815622	82
1	637	164.128961330198	83
1	647	167.14075532717	84
1	653	168.131559803865	85
1	661	171.13646455889	86
1	667	173.142627199467	87
1	683	180.152480924922	88
1	687	181.138017995582	89
1	695	182.132308483065	90
1	701	183.126621123931	91
1	709	186.125331437179	92
1	715	188.150800150593	93
1	719	189.142174461483	94
1	725	190.133103370888	95
1	731	192.130922642934	96
1	741	193.130347358324	97
1	745	194.154096572193	98
1	749	195.136846935394	99
1	759	196.143175582419	100
1	763	197.139116990265	101
1	767	198.128539923558	102
2	5	0.156066104333	0
2	21	3.138041973537	1
2	29	5.157535503113	2
2	47	9.167288573262	3
2	57	10.155629219774	4
2	69	12.170597043136	5
2	95	21.138410349653	6
2	109	24.1519809675	7
2	117	26.156369664571	8
2	129	30.142585205683	9
2	139	32.179895884982	10
2	173	42.14106351098	11
2	183	44.153483102384	12
2	193	45.140847303568	13
2	215	52.143450418685	14
2	223	53.162635405824	15
2	229	54.142668658026	16
2	247	58.150290445209	17
2	285	69.167098488497	18
2	291	70.170723622282	19
2	297	71.173939897744	20
2	313	75.171675658393	21
2	361	89.146670365434	22
2	389	97.147916069016	23
2	397	99.144952648174	24
2	417	104.169581045317	25
2	439	111.139342809408	26
2	449	112.151830077283	27
2	475	120.164833325077	28
2	499	125.165612250066	29
2	521	131.148721143057	30
2	527	132.139789769596	31
2	543	138.150937309378	32
2	561	142.164664163607	33
2	587	150.147985968598	34
2	593	151.141608795689	35
2	639	164.145189623296	36
2	649	167.164502126708	37
2	689	181.148989672366	38
2	697	182.151090633852	39
2	721	189.193734172439	40
2	733	192.178862880765	41
2	751	195.15350536026	42
2	769	198.140143264503	43
3	7	0.173938115733	0
3	31	5.172524223203	1
3	49	9.197697495421	2
3	59	10.166887963868	3
3	97	21.153295920146	4
3	141	32.19223890017	5
3	175	42.168266827557	6
3	185	44.20097341698	7
3	195	45.151049204849	8
3	217	52.1541133927	9
3	231	54.161247614437	10
3	315	75.190554272497	11
3	363	89.157012399618	12
3	399	99.173349976025	13
3	441	111.149510487068	14
3	451	112.163713027035	15
3	477	120.18702129311	16
3	501	125.189509020704	17
3	545	138.162916986731	18
3	563	142.221060688871	19
3	595	151.155346428627	20
3	691	181.161441653292	21
3	735	192.209778446491	22
3	753	195.17583416489	23
3	771	198.190222761052	24
4	9	0.1894486006	0
4	33	5.200607915846	1
4	51	9.214114587148	2
4	61	10.187102282611	3
4	99	21.186585053888	4
4	143	32.203998035624	5
4	187	44.217296782944	6
4	317	75.211332621338	7
4	365	89.201737754411	8
4	443	111.16213378016	9
4	479	120.197344861156	10
4	503	125.232888364043	11
4	547	138.173166870264	12
4	737	192.223905745158	13
4	755	195.192728510268	14
4	773	198.206730734476	15
5	10	0.1994486006	0
5	52	9.224114587148	1
5	62	10.197102282611	2
5	100	21.196585053888	3
5	144	32.213998035624	4
5	188	44.227296782944	5
5	318	75.221332621338	6
5	366	89.211737754411	7
5	480	120.207344861156	8
5	548	138.183166870264	9
5	774	198.216730734476	10

