version 2
run General-2-20231008-01:39:27-9598
attr configname General
attr datetime 20231008-01:39:27
attr experiment General
attr inifile omnetpp.ini
attr iterationvars ""
attr iterationvarsf ""
attr measurement ""
attr network Reliability
attr processid 9598
attr repetition 2
attr replication #2
attr resultdir results
attr runnumber 2
attr seedset 2
param Reliability.node[*].transmissionTime "uniform(1s, 2s)"
param Reliability.node[*].delayTime "uniform(0.01s, 0.2s)"
param Reliability.node[*].processingTime exponential(0.01s)
param Reliability.node[*].lossProbability 0.0

vector 0 Reliability.node[0] txVector ETV
vector 1 Reliability.node[1] txVector ETV
vector 2 Reliability.node[2] txVector ETV
vector 3 Reliability.node[4] txVector ETV
vector 4 Reliability.node[5] rxVector ETV
vector 5 Reliability.node[3] txVector ETV
0	1	0.092839031499	0
0	9	1.277921112972	1
0	17	2.482569749021	2
0	25	4.165595744058	3
0	33	5.659832584459	4
0	41	6.776025907157	5
0	49	7.996332113419	6
0	57	9.789421856424	7
0	65	11.490174199941	8
0	73	12.748907370979	9
0	81	14.293115526458	10
0	89	16.039746939458	11
0	97	17.641564057928	12
0	105	19.403494056801	13
0	113	20.663238808301	14
0	121	22.018992432181	15
0	129	23.406515859554	16
0	137	24.74842746488	17
0	145	25.963063212831	18
0	153	27.931353785119	19
0	161	29.474699018079	20
0	169	31.369844756809	21
0	177	32.993407938418	22
0	185	34.270847153639	23
0	193	35.9002068802	24
0	201	37.430028056049	25
0	209	38.478896142471	26
0	217	40.199244166513	27
0	225	41.903871666661	28
0	233	43.723337042166	29
0	241	45.599603496745	30
0	249	47.035124323584	31
0	257	48.560857575873	32
0	265	49.933898630805	33
0	273	51.682272629367	34
0	281	53.15781160027	35
0	289	54.441070347347	36
0	297	55.882458973231	37
0	305	57.300295219545	38
0	313	58.992914089256	39
0	321	60.86029563078	40
0	329	62.186141897247	41
0	337	63.621225546601	42
0	345	64.661645333537	43
0	353	66.304097759093	44
0	361	67.486784094267	45
0	369	69.277027892668	46
0	377	70.668002154699	47
0	385	72.097590770593	48
0	393	73.433883741519	49
0	401	74.521671298912	50
0	409	75.887149686014	51
0	417	77.620819482507	52
0	425	78.828861099455	53
0	433	80.355499523945	54
0	441	81.498494753634	55
0	449	82.695459076922	56
0	457	84.532202606342	57
0	465	86.035209381973	58
0	473	87.739990142194	59
0	481	88.749440515201	60
0	489	90.002687351565	61
0	497	91.208784987937	62
0	505	93.105189756743	63
0	513	94.985488708617	64
0	521	96.085453649537	65
0	529	98.023366764208	66
0	537	99.504089986227	67
0	545	101.133099448887	68
0	553	102.774672318037	69
0	561	104.101260618327	70
0	569	105.963237076552	71
0	577	107.5602536204	72
0	585	108.945162563604	73
0	593	110.484623656627	74
0	601	111.619827406034	75
0	609	113.004697308894	76
0	617	114.628656857665	77
0	625	116.205366519298	78
0	633	118.204936294369	79
0	641	119.748254937138	80
0	649	120.901122346539	81
0	657	122.447936271336	82
0	665	124.257869939804	83
0	673	125.692962365942	84
0	681	127.3834896472	85
0	689	128.449200323335	86
0	697	130.257167035266	87
0	705	132.255670297676	88
0	713	133.389175680018	89
0	721	135.160153649765	90
0	729	136.623391031305	91
0	737	137.827267115487	92
0	745	139.22284910783	93
0	753	140.419869363325	94
0	761	142.37958187565	95
0	769	144.072755134215	96
0	777	145.395711774954	97
0	785	146.498461053257	98
0	793	148.406396384833	99
0	801	150.159783210622	100
0	809	151.39521993256	101
0	817	152.868088341568	102
0	825	154.59862337496	103
0	833	155.957484974078	104
0	841	157.369303062343	105
0	849	159.017143714492	106
0	857	160.891817439132	107
0	865	162.354155044322	108
0	873	164.321167035046	109
0	881	165.635035241972	110
0	889	166.949895806396	111
0	897	168.625519026788	112
0	905	169.750169160795	113
0	913	170.803245398468	114
0	921	171.956666187868	115
0	929	173.426438804036	116
0	937	174.701174767241	117
0	945	176.044633044647	118
0	953	177.27398110183	119
0	961	179.068979283814	120
0	969	181.037125130902	121
0	977	182.56759398386	122
0	985	184.353868241675	123
0	993	186.229861180318	124
0	1001	187.458155317252	125
0	1009	188.746843668187	126
0	1017	190.247041656423	127
0	1025	191.342559261966	128
0	1033	192.93041049854	129
0	1041	194.564649277154	130
0	1049	195.66302588002	131
0	1057	197.262425954474	132
0	1065	199.174750119235	133
0	1073	201.077382037669	134
0	1081	202.092240569202	135
0	1089	204.044066517634	136
0	1097	205.257025307297	137
0	1105	206.753913310376	138
0	1113	208.139871834797	139
0	1121	209.617837850723	140
0	1129	211.079124741043	141
0	1137	212.447430498918	142
0	1145	214.153130949495	143
0	1153	215.273011601317	144
0	1161	216.463852040722	145
0	1169	217.929293455808	146
0	1177	219.460130118318	147
0	1185	220.557521022176	148
0	1193	221.788157694526	149
0	1201	222.92959339872	150
0	1209	224.068782007573	151
0	1217	225.437557851914	152
0	1225	227.176217988385	153
0	1233	228.734079002421	154
0	1241	230.319855226688	155
0	1249	231.811111558014	156
0	1257	232.82683367866	157
0	1265	234.664607489499	158
0	1273	236.146190577437	159
0	1281	237.619576534507	160
0	1289	239.449521045451	161
1	3	0.129654214104	0
1	11	1.297577786623	1
1	19	2.499472485505	2
1	27	4.194340297925	3
1	35	5.671838177487	4
1	43	6.790331064142	5
1	51	8.017210670768	6
1	59	9.832818482005	7
1	67	11.516738199891	8
1	75	12.759763983912	9
1	83	14.308763730517	10
1	91	16.064226929291	11
1	99	17.678539398946	12
1	107	19.418386164047	13
1	115	20.675633230385	14
1	123	22.035865550478	15
1	131	23.421323560371	16
1	139	24.763818917488	17
1	147	25.98161878076	18
1	155	27.943849147011	19
1	163	29.511169495864	20
1	171	31.381789250761	21
1	179	33.030935492442	22
1	187	34.284345172753	23
1	195	35.913406699889	24
1	203	37.442669251341	25
1	211	38.489424752857	26
1	219	40.210160523503	27
1	227	41.914818844372	28
1	235	43.739000233474	29
1	243	45.614104367728	30
1	251	47.045557879669	31
1	259	48.570966172635	32
1	267	49.963406617801	33
1	275	51.694074273926	34
1	283	53.170053570685	35
1	291	54.470622665827	36
1	299	55.900745804402	37
1	307	57.314508724121	38
1	315	59.018632149652	39
1	323	60.884442760068	40
1	331	62.198637814906	41
1	339	63.636254353601	42
1	347	64.676537611408	43
1	355	66.327764176955	44
1	363	67.511153036293	45
1	371	69.291915003312	46
1	379	70.688269121027	47
1	387	72.112802534543	48
1	395	73.452069729812	49
1	403	74.540565282606	50
1	411	75.917965629776	51
1	419	77.631049268318	52
1	427	78.84508704087	53
1	435	80.366906859148	54
1	443	81.537040659996	55
1	451	82.710786664995	56
1	459	84.546950796966	57
1	467	86.051158947338	58
1	475	87.752914385463	59
1	483	88.776088605238	60
1	491	90.018927525193	61
1	499	91.235657159185	62
1	507	93.120073481391	63
1	515	94.995507552938	64
1	523	96.096897282379	65
1	531	98.035113595313	66
1	539	99.526314851714	67
1	547	101.145305914238	68
1	555	102.787160648835	69
1	563	104.113933679199	70
1	571	105.981742394095	71
1	579	107.588646068656	72
1	587	108.962001702967	73
1	595	110.49826491347	74
1	603	111.633653174035	75
1	611	113.015217977707	76
1	619	114.638938222097	77
1	627	116.221558198039	78
1	635	118.247478783463	79
1	643	119.762998636421	80
1	651	120.917584767689	81
1	659	122.460713999713	82
1	667	124.272509918376	83
1	675	125.708343096829	84
1	683	127.397306400936	85
1	691	128.461990675934	86
1	699	130.273081394386	87
1	707	132.265959526026	88
1	715	133.400108354868	89
1	723	135.177165885778	90
1	731	136.636903712238	91
1	739	137.848324607744	92
1	747	139.249937025322	93
1	755	140.459746107624	94
1	763	142.400016569852	95
1	771	144.100288071575	96
1	779	145.412142118066	97
1	787	146.514980065629	98
1	795	148.428508449628	99
1	803	150.198548018569	100
1	811	151.415025889339	101
1	819	152.87836150046	102
1	827	154.612682725742	103
1	835	155.969926362565	104
1	843	157.380599157288	105
1	851	159.029500344533	106
1	859	160.905968642004	107
1	867	162.391722056313	108
1	875	164.332616678158	109
1	883	165.651531983384	110
1	891	167.007776080493	111
1	899	168.674270774928	112
1	907	169.761368842691	113
1	915	170.81363647976	114
1	923	171.967872440284	115
1	931	173.459847218686	116
1	939	174.717150117162	117
1	947	176.054886670442	118
1	955	177.285142088896	119
1	963	179.084386848544	120
1	971	181.053009703386	121
1	979	182.577913502628	122
1	987	184.392135804085	123
1	995	186.246065333021	124
1	1003	187.475756823602	125
1	1011	188.757246324293	126
1	1019	190.257162900439	127
1	1027	191.358137290669	128
1	1035	192.958157932603	129
1	1043	194.577430131494	130
1	1051	195.679602307888	131
1	1059	197.283710149572	132
1	1067	199.19481331154	133
1	1075	201.092998095292	134
1	1083	202.105160829953	135
1	1091	204.056241376766	136
1	1099	205.268374718623	137
1	1107	206.765606506638	138
1	1115	208.151852755959	139
1	1123	209.633976686764	140
1	1131	211.109045949665	141
1	1139	212.505097874572	142
1	1147	214.166122188237	143
1	1155	215.291912763089	144
1	1163	216.482864979875	145
1	1171	217.950958299564	146
1	1179	219.47264248163	147
1	1187	220.620050972987	148
1	1195	221.804018082146	149
1	1203	222.965205724046	150
1	1211	224.100093120389	151
1	1219	225.463027102545	152
1	1227	227.192166287953	153
1	1235	228.74812708847	154
1	1243	230.33407399305	155
1	1251	231.822692455587	156
1	1259	232.849967664056	157
1	1267	234.675275115509	158
1	1275	236.159335614183	159
1	1283	237.672833663638	160
1	1291	239.464058277708	161
2	5	0.145369217285	0
2	21	2.511511286675	1
2	37	5.690920046753	2
2	61	9.845268155681	3
2	69	11.541724287125	4
2	77	12.787073523707	5
2	85	14.369680032068	6
2	101	17.694361808177	7
2	125	22.063373722427	8
2	165	29.528938947887	9
2	181	33.042107384953	10
2	189	34.301578333285	11
2	205	37.454432989333	12
2	213	38.51546356238	13
2	221	40.247499701708	14
2	229	41.929846604788	15
2	245	45.629644609899	16
2	261	48.612373197626	17
2	277	51.732283747017	18
2	325	60.910709321331	19
2	341	63.656098549494	20
2	349	64.686959060068	21
2	365	67.523084572653	22
2	373	69.303847504148	23
2	381	70.7173524319	24
2	389	72.16362967933	25
2	453	82.724178317214	26
2	461	84.589066322868	27
2	477	87.776736015994	28
2	493	90.033121735583	29
2	517	95.036361636326	30
2	533	98.045447652751	31
2	549	101.158996410863	32
2	557	102.803883383879	33
2	605	111.646833291797	34
2	621	114.659947164037	35
2	637	118.277545028886	36
2	669	124.29173664879	37
2	677	125.744217572873	38
2	685	127.408366524715	39
2	701	130.286550941143	40
2	717	133.413139916069	41
2	733	136.67257402996	42
2	741	137.871960386806	43
2	749	139.267815152081	44
2	757	140.475657158742	45
2	773	144.129321601882	46
2	789	146.531817226843	47
2	813	151.42816221067	48
2	821	152.889988194583	49
2	853	159.064924610755	50
2	877	164.376215170711	51
2	901	168.692202569648	52
2	917	170.838854155385	53
2	925	171.990491761882	54
2	933	173.472534513831	55
2	941	174.730163839628	56
2	957	177.295239758277	57
2	973	181.067903685183	58
2	981	182.591283098166	59
2	1029	191.368252966012	60
2	1037	192.993066938171	61
2	1069	199.228943383843	62
2	1125	209.668114299492	63
2	1149	214.183365482791	64
2	1189	220.65903807924	65
2	1237	228.766013530761	66
2	1245	230.347970788798	67
2	1261	232.878027656216	68
2	1277	236.173290515495	69
2	1285	237.693867806745	70
3	7	0.159233733975	0
3	15	1.333922809393	1
3	23	2.524502061975	2
3	31	4.249959242905	3
3	39	5.703428215851	4
3	47	6.82513917889	5
3	55	8.054264358827	6
3	63	9.859447789397	7
3	71	11.554928726463	8
3	79	12.802286914816	9
3	87	14.386671931078	10
3	95	16.123919208577	11
3	103	17.72594419703	12
3	111	19.469264858451	13
3	119	20.708887340767	14
3	127	22.081380554254	15
3	135	23.473414703127	16
3	143	24.794665017719	17
3	151	26.031075437314	18
3	159	27.984560861586	19
3	167	29.539347284865	20
3	175	31.417416431684	21
3	183	33.054499699799	22
3	191	34.314915674457	23
3	199	35.94460247887	24
3	207	37.484846426473	25
3	215	38.542218375453	26
3	223	40.266410367032	27
3	231	41.945825460665	28
3	239	43.774239091215	29
3	247	45.653265000246	30
3	255	47.079919817612	31
3	263	48.633768392187	32
3	271	50.018603848667	33
3	279	51.746655974205	34
3	287	53.208393137266	35
3	295	54.512831629403	36
3	303	55.944861016289	37
3	311	57.336628043383	38
3	319	59.058283446903	39
3	327	60.923858864143	40
3	335	62.26057562967	41
3	343	63.668015517046	42
3	351	64.69892297879	43
3	359	66.369801279035	44
3	367	67.539278687916	45
3	375	69.316622676619	46
3	383	70.728425442671	47
3	391	72.180938689679	48
3	399	73.483916241161	49
3	407	74.648699323752	50
3	415	75.951492000914	51
3	423	77.656238942577	52
3	431	78.87246949732	53
3	439	80.398578963481	54
3	447	81.559818284704	55
3	455	82.736799053247	56
3	463	84.610886277941	57
3	471	86.103794178015	58
3	479	87.790966910528	59
3	487	88.804894292886	60
3	495	90.047030385423	61
3	503	91.282232028867	62
3	511	93.150815121294	63
3	519	95.055871271612	64
3	527	96.138219254056	65
3	535	98.070360772031	66
3	543	99.576329535964	67
3	551	101.1776684045	68
3	559	102.814893646467	69
3	567	104.152440362627	70
3	575	106.016180547177	71
3	583	107.622622510008	72
3	591	109.011090202214	73
3	599	110.530954754798	74
3	607	111.680860651671	75
3	615	113.098726648154	76
3	623	114.670984671179	77
3	631	116.246382617797	78
3	639	118.288003028359	79
3	647	119.813899488231	80
3	655	120.940350237604	81
3	663	122.508890232994	82
3	671	124.321053762206	83
3	679	125.758680855172	84
3	687	127.424077990704	85
3	695	128.517074590356	86
3	703	130.298599606837	87
3	711	132.311454744987	88
3	719	133.435067644262	89
3	727	135.205763847433	90
3	735	136.721010004716	91
3	743	137.885076990724	92
3	751	139.283325535263	93
3	759	140.488729744702	94
3	767	142.423247151892	95
3	775	144.140052582947	96
3	783	145.437421566392	97
3	791	146.556640421844	98
3	799	148.456133364119	99
3	807	150.227617408493	100
3	815	151.440160405616	101
3	823	152.919958036312	102
3	831	154.664546187241	103
3	839	155.998854155226	104
3	847	157.415871349284	105
3	855	159.077838957996	106
3	863	160.979099943179	107
3	871	162.442360663657	108
3	879	164.391746175482	109
3	887	165.688122641894	110
3	895	167.032901772048	111
3	903	168.724065159094	112
3	911	169.833242884567	113
3	919	170.850018731764	114
3	927	172.018025342011	115
3	935	173.486123349881	116
3	943	174.753216753784	117
3	951	176.0833059465	118
3	959	177.306353430917	119
3	967	179.127060060673	120
3	975	181.101566751326	121
3	983	182.624192638572	122
3	991	184.431561481026	123
3	999	186.285457638419	124
3	1007	187.506784856455	125
3	1015	188.798067554009	126
3	1023	190.300955086155	127
3	1031	191.399305085943	128
3	1039	193.016519791839	129
3	1047	194.607956880183	130
3	1055	195.72803832742	131
3	1063	197.316129114346	132
3	1071	199.240932657551	133
3	1079	201.125389352207	134
3	1087	202.173978168294	135
3	1095	204.09142259526	136
3	1103	205.304169304343	137
3	1111	206.796827496469	138
3	1119	208.208214087536	139
3	1127	209.691966983507	140
3	1135	211.152259005963	141
3	1143	212.53912158236	142
3	1151	214.205471340343	143
3	1159	215.316108748168	144
3	1167	216.508880316996	145
3	1175	217.997982322431	146
3	1183	219.509487940319	147
3	1191	220.67433692754	148
3	1199	221.840218906994	149
3	1207	223.01403523713	150
3	1215	224.146791950515	151
3	1223	225.503635673436	152
3	1231	227.217880400005	153
3	1239	228.777171608736	154
3	1247	230.361857276849	155
3	1255	231.854470480559	156
3	1263	232.888046914212	157
3	1271	234.700594096776	158
3	1279	236.193324935747	159
3	1287	237.717004877202	160
3	1295	239.491268860816	161
4	8	0.169233733975	0
4	16	1.343922809393	1
4	24	2.534502061975	2
4	32	4.259959242905	3
4	40	5.713428215851	4
4	48	6.83513917889	5
4	56	8.064264358827	6
4	64	9.869447789397	7
4	72	11.564928726463	8
4	80	12.812286914816	9
4	88	14.396671931078	10
4	96	16.133919208577	11
4	104	17.73594419703	12
4	112	19.479264858451	13
4	120	20.718887340767	14
4	128	22.091380554254	15
4	136	23.483414703127	16
4	144	24.804665017719	17
4	152	26.041075437314	18
4	160	27.994560861586	19
4	168	29.549347284865	20
4	176	31.427416431684	21
4	184	33.064499699799	22
4	192	34.324915674457	23
4	200	35.95460247887	24
4	208	37.494846426473	25
4	216	38.552218375453	26
4	224	40.276410367032	27
4	232	41.955825460665	28
4	240	43.784239091215	29
4	248	45.663265000246	30
4	256	47.089919817612	31
4	264	48.643768392187	32
4	272	50.028603848667	33
4	280	51.756655974205	34
4	288	53.218393137266	35
4	296	54.522831629403	36
4	304	55.954861016289	37
4	312	57.346628043383	38
4	320	59.068283446903	39
4	328	60.933858864143	40
4	336	62.27057562967	41
4	344	63.678015517046	42
4	352	64.70892297879	43
4	360	66.379801279035	44
4	368	67.549278687916	45
4	376	69.326622676619	46
4	384	70.738425442671	47
4	392	72.190938689679	48
4	400	73.493916241161	49
4	408	74.658699323752	50
4	416	75.961492000914	51
4	424	77.666238942577	52
4	432	78.88246949732	53
4	440	80.408578963481	54
4	448	81.569818284704	55
4	456	82.746799053247	56
4	464	84.620886277941	57
4	472	86.113794178015	58
4	480	87.800966910528	59
4	488	88.814894292886	60
4	496	90.057030385423	61
4	504	91.292232028867	62
4	512	93.160815121294	63
4	520	95.065871271612	64
4	528	96.148219254056	65
4	536	98.080360772031	66
4	544	99.586329535964	67
4	552	101.1876684045	68
4	560	102.824893646467	69
4	568	104.162440362627	70
4	576	106.026180547177	71
4	584	107.632622510008	72
4	592	109.021090202214	73
4	600	110.540954754798	74
4	608	111.690860651671	75
4	616	113.108726648154	76
4	624	114.680984671179	77
4	632	116.256382617797	78
4	640	118.298003028359	79
4	648	119.823899488231	80
4	656	120.950350237604	81
4	664	122.518890232994	82
4	672	124.331053762206	83
4	680	125.768680855172	84
4	688	127.434077990704	85
4	696	128.527074590356	86
4	704	130.308599606837	87
4	712	132.321454744987	88
4	720	133.445067644262	89
4	728	135.215763847433	90
4	736	136.731010004716	91
4	744	137.895076990724	92
4	752	139.293325535263	93
4	760	140.498729744702	94
4	768	142.433247151892	95
4	776	144.150052582947	96
4	784	145.447421566392	97
4	792	146.566640421844	98
4	800	148.466133364119	99
4	808	150.237617408493	100
4	816	151.450160405616	101
4	824	152.929958036312	102
4	832	154.674546187241	103
4	840	156.008854155226	104
4	848	157.425871349284	105
4	856	159.087838957996	106
4	864	160.989099943179	107
4	872	162.452360663657	108
4	880	164.401746175482	109
4	888	165.698122641894	110
4	896	167.042901772048	111
4	904	168.734065159094	112
4	912	169.843242884567	113
4	920	170.860018731764	114
4	928	172.028025342011	115
4	936	173.496123349881	116
4	944	174.763216753784	117
4	952	176.0933059465	118
4	960	177.316353430917	119
4	968	179.137060060673	120
4	976	181.111566751326	121
4	984	182.634192638572	122
4	992	184.441561481026	123
4	1000	186.295457638419	124
4	1008	187.516784856455	125
4	1016	188.808067554009	126
4	1024	190.310955086155	127
4	1032	191.409305085943	128
4	1040	193.026519791839	129
4	1048	194.617956880183	130
4	1056	195.73803832742	131
4	1064	197.326129114346	132
4	1072	199.250932657551	133
4	1080	201.135389352207	134
4	1088	202.183978168294	135
4	1096	204.10142259526	136
4	1104	205.314169304343	137
4	1112	206.806827496469	138
4	1120	208.218214087536	139
4	1128	209.701966983507	140
4	1136	211.162259005963	141
4	1144	212.54912158236	142
4	1152	214.215471340343	143
4	1160	215.326108748168	144
4	1168	216.518880316996	145
4	1176	218.007982322431	146
4	1184	219.519487940319	147
4	1192	220.68433692754	148
4	1200	221.850218906994	149
4	1208	223.02403523713	150
4	1216	224.156791950515	151
4	1224	225.513635673436	152
4	1232	227.227880400005	153
4	1240	228.787171608736	154
4	1248	230.371857276849	155
4	1256	231.864470480559	156
4	1264	232.898046914212	157
4	1272	234.710594096776	158
4	1280	236.203324935747	159
4	1288	237.727004877202	160
4	1296	239.501268860816	161
5	13	1.314217086812	0
5	29	4.239284090728	1
5	45	6.804911362072	2
5	53	8.042991877953	3
5	93	16.106494429226	4
5	109	19.454497225138	5
5	117	20.694372367191	6
5	133	23.431750523985	7
5	141	24.782795971705	8
5	149	26.011937998223	9
5	157	27.970310743842	10
5	173	31.399477740788	11
5	197	35.931380601294	12
5	237	43.75468735736	13
5	253	47.057610789971	14
5	269	50.002723704818	15
5	285	53.189947057588	16
5	293	54.487676621255	17
5	301	55.916388312853	18
5	309	57.325917387627	19
5	317	59.031929141773	20
5	333	62.238092645022	21
5	357	66.349553702755	22
5	397	73.464527550118	23
5	405	74.60344947297	24
5	413	75.931249381052	25
5	421	77.642849852987	26
5	429	78.85731717873	27
5	437	80.377202685174	28
5	445	81.548469703606	29
5	469	86.089835983804	30
5	485	88.79295484025	31
5	501	91.25734488501	32
5	509	93.136883853845	33
5	525	96.116874117892	34
5	541	99.549052248819	35
5	565	104.127034672494	36
5	573	106.00276021362	37
5	581	107.602819572583	38
5	589	108.985661725545	39
5	597	110.508613680027	40
5	613	113.049524296342	41
5	629	116.234094242611	42
5	645	119.784371939474	43
5	653	120.929719201941	44
5	661	122.482693885692	45
5	693	128.480574535205	46
5	709	132.283756966367	47
5	725	135.191717596632	48
5	765	142.411736781093	49
5	781	145.42463818652	50
5	797	148.43998127456	51
5	805	150.209461012712	52
5	829	154.643215906291	53
5	837	155.982648045033	54
5	845	157.405004560454	55
5	861	160.920909823557	56
5	869	162.406561121013	57
5	885	165.674532220506	58
5	893	167.021605256946	59
5	909	169.778375723768	60
5	949	176.070732172795	61
5	965	179.103873926881	62
5	989	184.420295095395	63
5	997	186.26169947719	64
5	1005	187.493413048575	65
5	1013	188.769254661827	66
5	1021	190.289184019215	67
5	1045	194.58917619425	68
5	1053	195.697634135965	69
5	1061	197.294337224368	70
5	1077	201.10546569462	71
5	1085	202.118570115854	72
5	1093	204.071901289602	73
5	1101	205.289695391318	74
5	1109	206.776522249187	75
5	1117	208.169854226018	76
5	1133	211.129826642743	77
5	1141	212.51988980656	78
5	1157	215.302845174411	79
5	1165	216.495607767414	80
5	1173	217.975572519734	81
5	1181	219.485719316968	82
5	1197	221.817525198824	83
5	1205	222.992399236686	84
5	1213	224.123569942253	85
5	1221	225.476361524083	86
5	1229	227.20267611303	87
5	1253	231.840928014568	88
5	1269	234.686876675672	89
5	1293	239.478715914559	90

