version 2
run General-1-20231008-00:31:02-8542
attr configname General
attr datetime 20231008-00:31:02
attr experiment General
attr inifile omnetpp.ini
attr iterationvars ""
attr iterationvarsf ""
attr measurement ""
attr network Reliability
attr processid 8542
attr repetition 1
attr replication #1
attr resultdir results
attr runnumber 1
attr seedset 1
param Reliability.node[*].transmissionTime "uniform(1s, 2s)"
param Reliability.node[*].delayTime "uniform(0.01s, 0.2s)"
param Reliability.node[*].processingTime exponential(0.01s)
param Reliability.node[*].lossProbability 0.2

vector 0 Reliability.node[0] txVector ETV
vector 1 Reliability.node[1] txVector ETV
vector 2 Reliability.node[2] txVector ETV
vector 3 Reliability.node[4] txVector ETV
vector 4 Reliability.node[5] rxVector ETV
vector 5 Reliability.node[3] txVector ETV
0	1	0.089234179703	0
0	5	2.086418987836	1
0	9	3.388751555586	2
0	11	4.785332281727	3
0	19	6.173243021944	4
0	23	7.377695270933	5
0	29	8.912109178144	6
0	31	10.851236973077	7
0	39	12.62962620857	8
0	43	14.524232872415	9
0	45	15.79728284979	10
0	53	16.856526046877	11
0	61	18.548403159601	12
0	69	20.172433142902	13
0	75	21.620326667444	14
0	83	22.750355236584	15
0	85	24.334744360417	16
0	93	25.900656388959	17
0	101	27.314712375056	18
0	105	28.454678495301	19
0	109	30.041233534113	20
0	111	31.489213717057	21
0	119	33.381349585604	22
0	127	35.132161688179	23
0	135	36.895394745402	24
0	137	38.517090465294	25
0	145	39.631836435178	26
0	153	41.394756502358	27
0	155	42.921814608274	28
0	163	44.807756703466	29
0	167	46.639449292913	30
0	175	47.811789803559	31
0	179	49.320037341097	32
0	183	51.031562097955	33
0	185	52.427875386204	34
0	187	53.535240694533	35
0	195	55.045050972725	36
0	203	56.16922428983	37
0	211	57.982219261469	38
0	215	59.729340901019	39
0	217	61.091245350547	40
0	219	62.244583834547	41
0	221	64.181774160478	42
0	223	66.098184033649	43
0	227	67.880142496319	44
0	231	69.439859475594	45
0	239	70.734218947476	46
0	247	71.929648427645	47
0	253	73.134006551819	48
0	255	74.785127117185	49
0	263	75.82481061912	50
0	265	77.404555842866	51
0	273	78.784697018684	52
0	277	80.5489386312	53
0	279	81.759112643431	54
0	281	83.511868201782	55
0	289	84.578404684206	56
0	297	86.418049895558	57
0	299	88.325865754047	58
0	307	90.257837821384	59
0	311	92.183037929357	60
0	317	93.824604136058	61
0	325	95.374152055363	62
0	327	96.728729289145	63
0	329	97.807249258625	64
0	337	99.500434456746	65
0	339	100.676630717124	66
0	347	102.008694289838	67
0	351	103.904974538487	68
0	359	105.810366850466	69
0	367	107.760410157618	70
0	373	109.07565496385	71
0	377	110.863584197945	72
0	383	111.879457177714	73
0	391	113.746974632497	74
0	399	115.321686140382	75
0	407	116.358155842525	76
0	415	117.809029777422	77
0	421	119.370488736201	78
0	429	120.644389061145	79
0	437	122.30710887595	80
0	441	123.492223178622	81
0	449	125.011234807436	82
0	455	126.784085238239	83
0	459	128.065302129721	84
0	463	129.753715377653	85
0	471	131.276001945723	86
0	479	133.192307497494	87
0	487	134.525591802903	88
0	491	136.142276871836	89
0	499	138.032793990223	90
0	505	139.686931337582	91
0	509	141.206283157811	92
0	513	142.516610995986	93
0	521	144.361320605388	94
0	523	145.682772437463	95
0	531	146.730090666449	96
0	539	148.500329395643	97
0	547	150.279251637523	98
0	555	151.42225747032	99
0	563	153.415084037817	100
0	567	154.575479219788	101
0	575	155.889625745247	102
0	583	157.331530023486	103
0	591	158.978283937675	104
0	595	160.776888181576	105
0	599	161.980562510089	106
0	607	163.361578634827	107
0	609	164.619381528002	108
0	617	166.18359027326	109
0	621	167.265064241485	110
0	629	169.081071746889	111
0	635	170.926923231808	112
0	639	172.070346280355	113
0	641	173.750365426652	114
0	649	175.334325214969	115
0	657	177.081263709469	116
0	665	179.072714278363	117
0	673	180.6912278469	118
0	679	182.581394150974	119
0	681	184.196698382851	120
0	689	186.034502250497	121
0	697	187.943795451551	122
0	699	189.818305717438	123
0	707	191.666095697909	124
0	715	193.199749045895	125
0	723	194.428353855276	126
0	731	195.950405106071	127
0	739	197.830748576095	128
0	747	199.3480161744	129
0	755	201.234515658237	130
0	759	202.461825392798	131
0	765	204.31829845615	132
0	773	205.75770289277	133
0	775	206.986516565674	134
0	777	208.650619127213	135
0	781	210.147869216169	136
0	785	211.731307747199	137
0	793	213.548142859603	138
0	795	215.259238178965	139
0	797	216.452698750079	140
0	803	217.521129810375	141
0	807	219.476339982248	142
0	809	221.300577823662	143
0	817	222.933193642537	144
0	823	224.142526078627	145
0	825	225.462497516193	146
0	833	226.574397274649	147
0	835	228.098293410039	148
0	839	229.853184869869	149
0	847	230.9928161247	150
0	855	232.015731249826	151
0	859	233.769341732731	152
0	867	235.413702814963	153
0	875	236.871803766705	154
0	879	238.22423339531	155
0	887	239.471153880825	156
1	3	0.126198958082	0
1	7	2.098006083808	1
1	13	4.806411215185	2
1	21	6.204289994907	3
1	25	7.412224935735	4
1	33	10.873823745189	5
1	41	12.640515003856	6
1	47	15.818385490099	7
1	55	16.870316941621	8
1	63	18.569209971501	9
1	71	20.206357749067	10
1	77	21.630522236995	11
1	87	24.354261941669	12
1	95	25.922511176346	13
1	103	27.340433968744	14
1	107	28.488050458702	15
1	113	31.503955188598	16
1	121	33.404295783879	17
1	129	35.146570513591	18
1	139	38.556946158187	19
1	147	39.656602784077	20
1	157	42.936234910043	21
1	165	44.825771266939	22
1	169	46.650924271916	23
1	177	47.824128920616	24
1	181	49.331364326633	25
1	189	53.546318052682	26
1	197	55.058324682048	27
1	205	56.182645813233	28
1	213	58.000343980849	29
1	225	66.117763730803	30
1	229	67.890268851063	31
1	233	69.454335085275	32
1	241	70.752926361077	33
1	249	71.979687965918	34
1	257	74.811940558232	35
1	267	77.422562013581	36
1	275	78.79708890576	37
1	283	83.524883511753	38
1	291	84.598167536522	39
1	301	88.336006252131	40
1	309	90.270113232419	41
1	313	92.197981019101	42
1	319	93.860665585178	43
1	331	97.817377200262	44
1	341	100.688034802344	45
1	349	102.021458271416	46
1	353	103.921134182781	47
1	361	105.82412995556	48
1	369	107.792749026025	49
1	375	109.095123266907	50
1	379	110.874094089405	51
1	385	111.904882554394	52
1	393	113.766865295401	53
1	401	115.347264079641	54
1	409	116.372970173511	55
1	417	117.820866972342	56
1	423	119.380589236806	57
1	431	120.657539021948	58
1	439	122.317981313773	59
1	443	123.516958443427	60
1	451	125.033465756926	61
1	457	126.814116685175	62
1	461	128.083730079455	63
1	465	129.787136879632	64
1	473	131.310040986493	65
1	481	133.202397023849	66
1	489	134.538253176431	67
1	493	136.167901151911	68
1	501	138.044355214403	69
1	507	139.712316288421	70
1	511	141.221274438677	71
1	515	142.534342441056	72
1	525	145.705622991803	73
1	533	146.753248227679	74
1	541	148.517517363052	75
1	549	150.312409195591	76
1	557	151.443022064139	77
1	565	153.438773974172	78
1	569	154.598430545234	79
1	577	155.908338379004	80
1	585	157.366930020795	81
1	593	158.991812636522	82
1	597	160.787816093977	83
1	601	162.00441978777	84
1	611	164.630802114571	85
1	619	166.199187260706	86
1	623	167.275533182061	87
1	631	169.096671358918	88
1	637	170.937739529555	89
1	643	173.76888734767	90
1	651	175.350347404839	91
1	659	177.106382293839	92
1	667	179.082818461777	93
1	675	180.708373584015	94
1	683	184.218605836062	95
1	691	186.049625079506	96
1	701	189.838739116512	97
1	709	191.679871284399	98
1	717	193.228231477538	99
1	725	194.442298955727	100
1	733	195.967296325146	101
1	741	197.865566393591	102
1	749	199.366557417332	103
1	757	201.248289926367	104
1	761	202.472901330036	105
1	767	204.330046948258	106
1	779	208.6679383397	107
1	783	210.184197320004	108
1	787	211.750330950666	109
1	799	216.483872759345	110
1	805	217.5365047943	111
1	811	221.321626122563	112
1	819	222.951995212663	113
1	827	225.476251939153	114
1	837	228.11452696819	115
1	841	229.863367232177	116
1	849	231.0101367163	117
1	857	232.034353403866	118
1	861	233.779394268875	119
1	869	235.440461543686	120
1	877	236.901171275006	121
1	881	238.237108478366	122
2	15	4.824150812888	0
2	49	15.83385187702	1
2	65	18.582501180632	2
2	115	31.515762666882	3
2	123	33.426014215538	4
2	131	35.16215827083	5
2	141	38.5713360208	6
2	149	39.666631528597	7
2	159	42.960699285277	8
2	235	69.466607771265	9
2	269	77.45738436014	10
2	285	83.536429754752	11
2	293	84.60884990833	12
2	303	88.359046297809	13
2	321	93.875260208683	14
2	355	103.935385074517	15
2	381	110.909178107907	16
2	395	113.788901158534	17
2	411	116.383204586954	18
2	419	117.842192827998	19
2	425	119.406566247746	20
2	445	123.527652287738	21
2	467	129.799686317672	22
2	495	136.179557821875	23
2	517	142.554140884573	24
2	527	145.725045253893	25
2	551	150.327708505463	26
2	559	151.454477269938	27
2	571	154.620229128349	28
2	579	155.92500815925	29
2	625	167.297466824663	30
2	633	169.117351681312	31
2	669	179.093941320465	32
2	693	186.069815486478	33
2	703	189.852458267862	34
2	719	193.250850274746	35
2	735	195.977390250649	36
2	743	197.877333024346	37
2	751	199.401840551541	38
2	789	211.763958036415	39
2	801	216.530902555867	40
2	813	221.335609321891	41
2	829	225.527846182957	42
2	851	231.026128894027	43
2	863	233.793481642787	44
2	871	235.453665246274	45
2	883	238.261971803995	46
3	17	4.837909004815	0
3	37	10.904885408464	1
3	51	15.849158553481	2
3	59	16.905794598988	3
3	67	18.595013069187	4
3	81	21.678480979025	5
3	91	24.385787842712	6
3	99	25.957966002245	7
3	117	31.530245260836	8
3	125	33.449914927872	9
3	133	35.172275648967	10
3	143	38.586580818388	11
3	151	39.678291245932	12
3	161	42.970858762603	13
3	173	46.673738450788	14
3	193	53.608374916475	15
3	201	55.094999180114	16
3	209	56.224669037934	17
3	237	69.478258135248	18
3	245	70.776181849931	19
3	261	74.847942745898	20
3	271	77.470462113553	21
3	287	83.556631302921	22
3	295	84.626246776242	23
3	305	88.398808795023	24
3	323	93.918299790474	25
3	335	97.871004026375	26
3	345	100.743830637107	27
3	357	103.948749860843	28
3	365	105.855990716736	29
3	389	111.963013088772	30
3	397	113.812764972746	31
3	405	115.390318412573	32
3	413	116.397022814267	33
3	427	119.443880285247	34
3	435	120.688590365505	35
3	447	123.541848266427	36
3	469	129.827936134868	37
3	477	131.334652582797	38
3	485	133.225818224916	39
3	497	136.200965926261	40
3	519	142.581651302196	41
3	529	145.747230537058	42
3	537	146.787018408039	43
3	545	148.558692103556	44
3	553	150.347831137846	45
3	561	151.486308243092	46
3	573	154.636915125308	47
3	581	155.937854797589	48
3	589	157.393786156459	49
3	605	162.079860800417	50
3	615	164.687327520195	51
3	627	167.320774744508	52
3	647	173.832553279923	53
3	655	175.385575297037	54
3	663	177.127141409898	55
3	671	179.134140296559	56
3	687	184.298290348277	57
3	695	186.081087652188	58
3	705	189.910318001587	59
3	713	191.706882785553	60
3	721	193.27135002718	61
3	729	194.495807834387	62
3	737	195.989677881845	63
3	745	197.891973936006	64
3	753	199.413207997068	65
3	771	204.363679407952	66
3	791	211.783011740494	67
3	815	221.34996350577	68
3	831	225.544062266756	69
3	845	229.898964113391	70
3	853	231.047290645468	71
3	865	233.82122474291	72
3	873	235.480044202589	73
3	885	238.279400976207	74
4	18	4.847909004815	0
4	38	10.914885408464	1
4	60	16.915794598988	2
4	82	21.688480979025	3
4	92	24.395787842712	4
4	100	25.967966002245	5
4	118	31.540245260836	6
4	126	33.459914927872	7
4	134	35.182275648967	8
4	144	38.596580818388	9
4	152	39.688291245932	10
4	162	42.980858762603	11
4	174	46.683738450788	12
4	194	53.618374916475	13
4	210	56.234669037934	14
4	246	70.786181849931	15
4	288	83.566631302921	16
4	296	84.636246776242	17
4	306	88.408808795023	18
4	336	97.881004026375	19
4	346	100.753830637107	20
4	358	103.958749860843	21
4	366	105.865990716736	22
4	390	111.973013088772	23
4	398	113.822764972746	24
4	406	115.400318412573	25
4	414	116.407022814267	26
4	428	119.453880285247	27
4	436	120.698590365505	28
4	478	131.344652582797	29
4	520	142.591651302196	30
4	530	145.757230537058	31
4	538	146.797018408039	32
4	546	148.568692103556	33
4	554	150.357831137846	34
4	562	151.496308243092	35
4	574	154.646915125308	36
4	582	155.947854797589	37
4	590	157.403786156459	38
4	606	162.089860800417	39
4	616	164.697327520195	40
4	628	167.330774744508	41
4	648	173.842553279923	42
4	656	175.395575297037	43
4	664	177.137141409898	44
4	672	179.144140296559	45
4	688	184.308290348277	46
4	696	186.091087652188	47
4	706	189.920318001587	48
4	714	191.716882785553	49
4	730	194.505807834387	50
4	738	195.999677881845	51
4	746	197.901973936006	52
4	754	199.423207997068	53
4	772	204.373679407952	54
4	816	221.35996350577	55
4	832	225.554062266756	56
4	846	229.908964113391	57
4	854	231.057290645468	58
4	866	233.83122474291	59
4	874	235.490044202589	60
4	886	238.289400976207	61
5	27	7.430405008849	0
5	35	10.887584131413	1
5	57	16.895610023208	2
5	73	20.239726427066	3
5	79	21.665394690942	4
5	89	24.373160999076	5
5	97	25.940289527301	6
5	171	46.663055660522	7
5	191	53.564057961204	8
5	199	55.076765933054	9
5	207	56.209101915945	10
5	243	70.763439484386	11
5	251	71.991393374874	12
5	259	74.830353583792	13
5	315	92.209807654364	14
5	333	97.856936588815	15
5	343	100.705678599428	16
5	363	105.843131211679	17
5	371	107.810599397397	18
5	387	111.951296233611	19
5	403	115.377250398304	20
5	433	120.671088646401	21
5	453	125.084104172379	22
5	475	131.322508728472	23
5	483	133.215247659675	24
5	503	138.055918149721	25
5	535	146.767013438958	26
5	543	148.542784401344	27
5	587	157.377516162472	28
5	603	162.037812472209	29
5	613	164.670280863131	30
5	645	173.779169113674	31
5	653	175.369150681719	32
5	661	177.116759946418	33
5	677	180.719946653285	34
5	685	184.274612814679	35
5	711	191.691198373599	36
5	727	194.474088651114	37
5	763	202.49984864737	38
5	769	204.348585251804	39
5	821	222.968109132076	40
5	843	229.884571180371	41

