version 2
run General-1-20231007-21:33:18-5989
attr configname General
attr datetime 20231007-21:33:18
attr experiment General
attr inifile omnetpp.ini
attr iterationvars ""
attr iterationvarsf ""
attr measurement ""
attr network Reliability
attr processid 5989
attr repetition 1
attr replication #1
attr resultdir results
attr runnumber 1
attr seedset 1
param Reliability.node[*].transmissionTime "uniform(1s, 2s)"
param Reliability.node[*].delayTime "uniform(0.01s, 0.2s)"
param Reliability.node[*].processingTime exponential(0.01s)
param Reliability.node[*].lossProbability 0.2

vector 0 Reliability.node[0] txVector ETV
vector 1 Reliability.node[1] txVector ETV
vector 2 Reliability.node[2] txVector ETV
vector 3 Reliability.node[4] txVector ETV
vector 4 Reliability.node[3] txVector ETV
vector 5 Reliability.node[5] rxVector ETV
0	1	0.089234179703	0
0	5	2.086418987836	1
0	9	3.388751555586	2
0	11	4.785332281727	3
0	23	6.173243021944	4
0	35	7.843710529504	5
0	41	9.361863077737	6
0	43	10.634913055112	7
0	51	11.694156252199	8
0	59	13.386033364923	9
0	67	15.010063348224	10
0	73	16.457956872766	11
0	85	17.587985441906	12
0	93	19.544521100705	13
0	99	20.958700366903	14
0	107	22.473589474454	15
0	119	24.365725343001	16
0	127	25.989397549189	17
0	133	27.870739378154	18
0	145	29.657690852068	19
0	147	31.274835768507	20
0	155	32.601480670625	21
0	157	34.068873355982	22
0	163	35.33787440567	23
0	165	36.810349447073	24
0	173	38.55311427417	25
0	175	40.476138814937	26
0	179	42.187663571795	27
0	181	43.583976860044	28
0	183	44.691342168373	29
0	191	46.201152446565	30
0	199	47.32532576367	31
0	213	49.138320735309	32
0	215	51.07551106124	33
0	217	52.991920934411	34
0	221	54.773879397081	35
0	225	56.333596376356	36
0	233	57.627955848238	37
0	241	58.823385328407	38
0	247	60.027743452581	39
0	249	61.678864017947	40
0	257	62.718547519882	41
0	259	64.298292743628	42
0	267	65.678433919446	43
0	271	67.442675531962	44
0	273	68.652849544193	45
0	275	70.405605102544	46
0	283	71.472141584968	47
0	291	73.31178679632	48
0	293	75.219602654809	49
0	301	77.151574722146	50
0	305	79.076774830119	51
0	311	80.71834103682	52
0	319	82.267888956125	53
0	321	83.622466189907	54
0	323	84.700986159387	55
0	331	86.394171357508	56
0	333	87.570367617886	57
0	349	88.9024311906	58
0	355	90.479498823527	59
0	363	92.432329947948	60
0	369	94.010187164768	61
0	371	95.064096439285	62
0	373	96.484290119847	63
0	377	98.163358957162	64
0	389	100.030876411945	65
0	397	101.6177097495	66
0	405	102.622373062308	67
0	411	104.02385264787	68
0	415	105.997654729179	69
0	423	107.271555054123	70
0	431	108.934274868928	71
0	435	110.1193891716	72
0	443	111.638400800414	73
0	449	113.411251231217	74
0	453	114.692468122699	75
0	457	116.380881370631	76
0	465	117.903167938701	77
0	473	119.819473490472	78
0	481	121.152757795881	79
0	485	122.769442864814	80
0	493	124.659959983201	81
0	499	126.31409733056	82
0	503	127.833449150789	83
0	507	129.143776988964	84
0	517	130.988486598366	85
0	525	132.639790931371	86
0	533	134.609355438155	87
0	541	136.405944115369	88
0	549	137.765504419458	89
0	553	139.311575225209	90
0	567	140.769726103525	91
0	579	142.611136165568	92
0	587	143.668065599519	93
0	591	144.871739928032	94
0	603	146.25275605277	95
0	609	147.62484372652	96
0	617	149.081821633855	97
0	629	150.84803301364	98
0	631	152.528052159937	99
0	639	154.112011948254	100
0	647	155.858950442754	101
0	657	157.850401011648	102
0	665	159.459214100501	103
0	669	161.374488418576	104
0	671	162.989792650453	105
0	679	164.827596518099	106
0	691	166.736889719153	107
0	703	168.322468378004	108
0	707	169.834761075564	109
0	719	171.14033268963	110
0	727	172.593186189309	111
0	735	174.412790846899	112
0	743	176.34465196019	113
0	747	177.751354833953	114
0	753	178.926120709982	115
0	761	180.111251106374	116
0	765	181.386721293796	117
0	769	182.883971382752	118
0	773	184.467409913782	119
0	781	186.284245026186	120
0	783	187.995340345548	121
0	785	189.188800916662	122
0	791	190.257231976958	123
0	795	192.212442148831	124
0	797	194.036679990245	125
0	805	195.66929580912	126
0	811	196.87862824521	127
0	813	198.198599682776	128
0	821	199.310499441232	129
0	823	200.834395576622	130
0	827	202.589287036452	131
0	835	203.728918291283	132
0	847	204.751833416409	133
0	849	206.559532449701	134
0	857	207.664201059499	135
0	865	209.242700641164	136
0	867	210.253472434244	137
0	879	211.500392919759	138
0	885	212.809034865469	139
0	889	214.023147005474	140
0	893	215.516415272726	141
0	899	216.627335640954	142
0	911	217.859037950289	143
0	915	218.959759207329	144
0	919	220.085969311305	145
0	925	221.493099952702	146
0	929	222.821919212936	147
0	941	224.465814855768	148
0	947	225.825947513225	149
0	955	227.616927674626	150
0	963	229.521558676501	151
0	965	231.242076593804	152
0	971	233.089420625827	153
0	977	234.982736964597	154
0	983	236.96349573613	155
0	997	238.494954058322	156
1	3	0.126198958082	0
1	7	2.098006083808	1
1	13	4.806411215185	2
1	25	6.188643932442	3
1	37	7.873736834275	4
1	45	10.656015695421	5
1	53	11.707947146943	6
1	61	13.406840176823	7
1	69	15.043987954389	8
1	75	16.468152442317	9
1	87	17.601009731071	10
1	95	19.555033543754	11
1	101	20.997631177692	12
1	109	22.488330945995	13
1	121	24.389626055335	14
1	129	25.999514927326	15
1	135	27.88140149551	16
1	149	31.292323595942	17
1	159	34.096692987451	18
1	167	36.822480835679	19
1	177	40.487465800473	20
1	185	44.702419526522	21
1	193	46.214426155888	22
1	201	47.338747287073	23
1	219	53.011500631565	24
1	223	54.784005751825	25
1	227	56.348071986037	26
1	235	57.646663261839	27
1	243	58.87342486668	28
1	251	61.705677458994	29
1	261	64.316298914343	30
1	269	65.690825806522	31
1	277	70.418620412515	32
1	285	71.491904437284	33
1	295	75.229743152893	34
1	303	77.163850133181	35
1	307	79.091717919863	36
1	313	80.75440248594	37
1	325	84.711114101024	38
1	335	87.581771703106	39
1	351	88.913783961564	40
1	357	90.491962858757	41
1	365	92.444363482254	42
1	375	96.519374138349	43
1	379	98.188784333842	44
1	391	100.054740226157	45
1	399	101.630777763769	46
1	407	102.636191289621	47
1	413	104.045178503526	48
1	417	106.007755229784	49
1	425	107.284705014926	50
1	433	108.945147306751	51
1	437	110.144124436405	52
1	445	111.660631749904	53
1	451	113.441282678153	54
1	455	114.710896072433	55
1	459	116.41430287261	56
1	467	117.937206979471	57
1	475	119.829563016827	58
1	483	121.165419169409	59
1	487	122.795067144889	60
1	495	124.671521207381	61
1	501	126.339482281399	62
1	505	127.848440431655	63
1	509	129.161508434034	64
1	519	131.010644251957	65
1	527	132.653413240982	66
1	535	134.625263983956	67
1	543	136.424019199594	68
1	551	137.78297888894	69
1	555	139.343406198363	70
1	569	140.787834775292	71
1	581	142.628239429383	72
1	589	143.67899351192	73
1	593	144.895597205713	74
1	605	146.263620954752	75
1	611	147.639326534787	76
1	619	149.096014041171	77
1	633	152.546574080955	78
1	641	154.128034138124	79
1	649	155.884069027124	80
1	659	157.861523870336	81
1	667	159.470787169771	82
1	673	163.011700103664	83
1	681	164.842719347108	84
1	693	166.750196767209	85
1	705	168.360418599296	86
1	709	169.85138379433	87
1	721	171.160229614884	88
1	729	172.62143963217	89
1	737	174.450416182016	90
1	745	176.359058895577	91
1	749	177.770696687031	92
1	755	178.948223185514	93
1	763	180.121781330415	94
1	767	181.404040506283	95
1	771	182.920299486587	96
1	775	184.486433117249	97
1	787	189.219974925928	98
1	793	190.272606960883	99
1	799	194.057728289146	100
1	807	195.688097379246	101
1	815	198.212354105736	102
1	825	200.850629134773	103
1	829	202.59946939876	104
1	837	203.746238882883	105
1	851	206.573619823613	106
1	859	207.677404762087	107
1	869	210.2663475173	108
1	881	211.523607168896	109
1	887	212.821253158698	110
1	891	214.046387452224	111
1	895	215.537641168078	112
1	901	216.639662854417	113
1	913	217.869324718079	114
1	917	219.007074384742	115
1	921	220.123296013326	116
1	927	221.507316891399	117
1	931	222.845955894915	118
1	943	224.476605478116	119
1	949	225.849775412992	120
1	957	227.631550476729	121
1	967	231.260482728061	122
1	973	233.108593033488	123
1	979	235.004338539302	124
1	985	236.982268836239	125
1	999	238.509043856926	126
2	15	4.824150812888	0
2	39	7.884625629561	1
2	47	10.671482082342	2
2	63	13.420131385954	3
2	89	17.612089308041	4
2	111	22.500138424279	5
2	123	24.41403284519	6
2	131	26.019235491659	7
2	137	27.900038231826	8
2	151	31.314669377416	9
2	169	36.833163625945	10
2	229	56.360344672027	11
2	263	64.351121260902	12
2	279	70.430166655514	13
2	287	71.502586809092	14
2	297	75.252783198571	15
2	315	80.768997109445	16
2	359	90.518432207167	17
2	393	100.065111739617	18
2	401	101.64677203614	19
2	409	102.654434308391	20
2	419	106.033732240724	21
2	439	110.154818280716	22
2	461	116.42685231065	23
2	489	122.806723814853	24
2	511	129.181306877551	25
2	537	134.635731348953	26
2	557	139.355154437889	27
2	583	142.65114854835	28
2	607	146.27672803305	29
2	613	147.659371929838	30
2	621	149.109263111414	31
2	661	157.90172284643	32
2	683	164.86290975408	33
2	711	169.861660458684	34
2	731	172.636999165983	35
2	739	174.465177958801	36
2	751	177.811298542568	37
2	777	184.500060202998	38
2	789	189.26700472245	39
2	801	194.071711488474	40
2	817	198.26394834954	41
2	839	203.76223106061	42
2	861	207.703783718402	43
2	871	210.291210842929	44
2	897	215.559355429262	45
2	933	222.877278286001	46
2	959	227.647486884446	47
2	969	231.274899791748	48
2	981	235.029808631816	49
2	1001	238.524205932214	50
3	17	4.837909004815	0
3	21	4.86280440738	1
3	29	6.216485116924	2
3	33	6.25283227526	3
3	49	10.686788758803	4
3	57	11.74342480431	5
3	65	13.432643274509	6
3	79	16.516111184347	7
3	83	16.55342716328	8
3	91	17.652034265143	9
3	105	21.040576628964	10
3	113	22.514621018233	11
3	117	22.54986685126	12
3	125	24.44665555414	13
3	139	27.914815417599	14
3	143	27.961771266823	15
3	153	31.348587382254	16
3	171	36.850261424087	17
3	189	44.764476390315	18
3	197	46.251100653954	19
3	205	47.380770511774	20
3	209	47.420111829313	21
3	231	56.37199503601	22
3	239	57.669918750693	23
3	255	61.74167964666	24
3	265	64.364199014315	25
3	281	70.450368203683	26
3	289	71.519983677004	27
3	299	75.292545695785	28
3	317	80.812036691236	29
3	329	84.764740927137	30
3	339	87.637567537869	31
3	343	87.698854348738	32
3	347	87.76049248874	33
3	361	90.531114509773	34
3	383	98.24691486822	35
3	387	98.279737097526	36
3	395	100.087086918074	37
3	403	101.659519268594	38
3	421	106.071046278225	39
3	429	107.315756358483	40
3	441	110.169014259405	41
3	463	116.455102127846	42
3	471	117.961818575775	43
3	479	119.852984217894	44
3	491	122.828131919239	45
3	513	129.208817295174	46
3	523	131.036209965244	47
3	531	132.687542387946	48
3	539	134.6493016467	49
3	547	136.483074407438	50
3	559	139.39010380133	51
3	563	139.43102909329	52
3	573	140.856868728591	53
3	577	140.905309185962	54
3	585	142.664677247197	55
3	597	144.97103821836	56
3	601	145.006377259282	57
3	615	147.674279346292	58
3	623	149.13663638481	59
3	627	149.157566126783	60
3	637	152.610240013208	61
3	645	154.163262030322	62
3	653	155.904828143183	63
3	663	157.933810725554	64
3	677	163.091384615879	65
3	685	164.87418191979	66
3	689	164.918006527269	67
3	697	166.780262185217	68
3	701	166.849813218259	69
3	713	169.875310385087	70
3	717	169.922175634936	71
3	725	171.192883917906	72
3	733	172.676753956777	73
3	741	174.477764374623	74
3	759	178.99365758408	75
3	779	184.519113907077	76
3	803	194.086065672353	77
3	819	198.280164433339	78
3	833	202.635066279974	79
3	841	203.783392812051	80
3	845	203.842027438605	81
3	855	206.617489679263	82
3	863	207.718128996498	83
3	873	210.308640015141	84
3	877	210.351556174784	85
3	905	216.678375613338	86
3	909	216.710511769717	87
3	935	222.901098455946	88
3	939	222.928261644423	89
3	953	225.877033280532	90
3	961	227.658904376732	91
3	989	237.009859153611	92
3	993	237.061013949168	93
3	1003	238.536547860176	94
4	19	4.850196248881	0
4	27	6.204277384755	1
4	31	6.239071889036	2
4	55	11.73324022853	3
4	71	15.077356632388	4
4	77	16.503024896264	5
4	81	16.53489124285	6
4	97	19.565497603952	7
4	103	21.029097720961	8
4	115	22.538516498823	9
4	141	27.94818506275	10
4	161	34.165923018106	11
4	187	44.720159435044	12
4	195	46.232867406894	13
4	203	47.365203389785	14
4	207	47.40451897872	15
4	211	47.430729707802	16
4	237	57.657176385148	17
4	245	58.885130275636	18
4	253	61.724090484554	19
4	309	79.103544555126	20
4	327	84.750673489577	21
4	337	87.59941550019	22
4	341	87.670228165025	23
4	345	87.742588265887	24
4	353	88.932924651291	25
4	367	92.463251209158	26
4	381	98.235198013059	27
4	385	98.265464743574	28
4	427	107.298254639379	29
4	447	111.711270165357	30
4	469	117.94967472145	31
4	477	119.842413652653	32
4	497	124.683084142699	33
4	515	129.222695293278	34
4	521	131.025858135778	35
4	529	132.66638476605	36
4	545	136.470804675642	37
4	561	139.404669434448	38
4	565	139.452771361034	39
4	571	140.843641217956	40
4	575	140.869909188653	41
4	595	144.928989890152	42
4	599	144.984019622645	43
4	625	149.146749829036	44
4	635	152.556855846959	45
4	643	154.146837415004	46
4	651	155.894446679703	47
4	655	155.924464943135	48
4	675	163.067707082281	49
4	687	164.904937233027	50
4	695	166.76329793516	51
4	699	166.814427882765	52
4	715	169.904935102832	53
4	723	171.174285855055	54
4	757	178.979365318257	55
4	809	195.704211298659	56
4	831	202.620673346954	57
4	843	203.807401227976	58
4	853	206.601362923736	59
4	875	210.323002375309	60
4	883	211.535387549421	61
4	903	216.660303836848	62
4	907	216.694797057588	63
4	923	220.138474547675	64
4	937	222.914759226324	65
4	945	224.501846423885	66
4	951	225.86480228247	67
4	975	233.161074163364	68
4	987	236.993893219566	69
4	991	237.034096875106	70
4	995	237.090816542001	71
5	22	4.87280440738	0
5	34	6.26283227526	1
5	58	11.75342480431	2
5	92	17.662034265143	3
5	118	22.55986685126	4
5	126	24.45665555414	5
5	144	27.971771266823	6
5	154	31.358587382254	7
5	172	36.860261424087	8
5	190	44.774476390315	9
5	240	57.679918750693	10
5	282	70.460368203683	11
5	290	71.529983677004	12
5	300	75.302545695785	13
5	330	84.774740927137	14
5	348	87.77049248874	15
5	362	90.541114509773	16
5	388	98.289737097526	17
5	396	100.097086918074	18
5	422	106.081046278225	19
5	430	107.325756358483	20
5	472	117.971818575775	21
5	524	131.046209965244	22
5	532	132.697542387946	23
5	548	136.493074407438	24
5	578	140.915309185962	25
5	602	145.016377259282	26
5	616	147.684279346292	27
5	638	152.620240013208	28
5	646	154.173262030322	29
5	664	157.943810725554	30
5	678	163.101384615879	31
5	690	164.928006527269	32
5	718	169.932175634936	33
5	726	171.202883917906	34
5	804	194.096065672353	35
5	820	198.290164433339	36
5	834	202.645066279974	37
5	846	203.852027438605	38
5	856	206.627489679263	39
5	864	207.728128996498	40
5	878	210.361556174784	41
5	910	216.720511769717	42
5	940	222.938261644423	43
5	962	227.668904376732	44
5	1004	238.546547860176	45

