version 2
run General-2-20231004-20:10:54-11760
attr configname General
attr datetime 20231004-20:10:54
attr experiment General
attr inifile omnetpp.ini
attr iterationvars ""
attr iterationvarsf ""
attr measurement ""
attr network Reliability
attr processid 11760
attr repetition 2
attr replication #2
attr resultdir results
attr runnumber 2
attr seedset 2
param Reliability.node[*].transmissionTime "uniform(1s, 2s)"
param Reliability.node[*].delayTime "uniform(0.01s, 0.2s)"
param Reliability.node[*].processingTime exponential(0.01s)
param Reliability.node[*].lossProbability 0.2

vector 0 Reliability.node[0] txVector ETV
vector 1 Reliability.node[1] txVector ETV
vector 2 Reliability.node[3] txVector ETV
vector 3 Reliability.node[4] txVector ETV
vector 4 Reliability.node[5] rxVector ETV
0	1	0.092839031499	0
0	3	1.277921112972	1
0	11	3.20946197656	2
0	19	4.363888652083	3
0	25	5.996626382713	4
0	29	7.495187550337	5
0	37	9.214941781267	6
0	39	10.39192640504	7
0	43	12.36155881269	8
0	47	13.649427632588	9
0	49	14.831154669887	10
0	55	16.325444437815	11
0	63	18.092935614307	12
0	71	19.561609196729	13
0	77	21.174638890448	14
0	85	22.323203670812	15
0	93	24.316469962728	16
0	101	25.670145336092	17
0	103	27.484283752991	18
0	111	29.432374176355	19
0	115	31.179005589355	20
0	123	33.067309335824	21
0	127	34.773851337861	22
0	135	36.734165067803	23
0	143	38.666793628614	24
0	151	40.220427474491	25
0	155	41.225971895521	26
0	163	42.581725519401	27
0	171	43.945051410719	28
0	179	45.771419416432	29
0	183	47.153112354939	30
0	191	48.800126580772	31
0	197	50.679328611138	32
0	203	52.211473051942	33
0	211	53.688316458155	34
0	219	55.056923999701	35
0	227	56.611463473196	36
0	235	58.529182194983	37
0	243	60.367012742925	38
0	247	61.644451958146	39
0	249	63.108194566118	40
0	253	64.960483526364	41
0	259	65.960607110541	42
0	261	67.475466277701	43
0	269	69.355456628855	44
0	277	70.381840775041	45
0	283	71.887252410194	46
0	291	73.106542383107	47
0	295	74.729814716168	48
0	301	76.542596667791	49
0	303	77.558706932953	50
0	309	79.493742660871	51
0	311	81.313208036376	52
0	313	82.403578414367	53
0	319	83.761818722141	54
0	327	84.7921869741	55
0	335	86.379361175484	56
0	343	88.25248851559	57
0	345	89.57617171809	58
0	347	91.311523112253	59
0	355	92.497112848348	60
0	363	93.507913771103	61
0	371	95.185053514101	62
0	377	96.478797248116	63
0	379	97.643664390564	64
0	383	99.471117740979	65
0	391	100.82529016353	66
0	399	102.453471382165	67
0	407	104.311939723108	68
0	415	105.737914472835	69
0	423	107.520547490816	70
0	425	109.096326489716	71
0	433	110.515233801927	72
0	441	112.376261479238	73
0	449	113.702107745705	74
0	451	114.972285505634	75
0	459	116.83846574744	76
0	467	118.021750531642	77
0	475	119.620296913216	78
0	483	120.633533946954	79
0	491	122.597930845822	80
0	499	124.249023035885	81
0	501	125.703101341863	82
0	507	126.878746028076	83
0	513	128.269720290107	84
0	515	130.243271606294	85
0	517	131.485609109299	86
0	523	132.692227860465	87
0	527	134.543900134293	88
0	529	135.907194780204	89
0	537	137.24348775113	90
0	541	138.762012782292	91
0	545	139.925352052105	92
0	553	141.143259373512	93
0	561	142.732356483368	94
0	569	144.264741389332	95
0	573	145.931295488514	96
0	579	147.139337105462	97
0	587	148.571470206156	98
0	595	149.77569273279	99
0	597	150.918687962479	100
0	601	152.049967185146	101
0	605	153.264210063982	102
0	607	154.738102970896	103
0	615	156.312549313083	104
0	623	157.456969776908	105
0	631	159.307399607748	106
0	639	160.774736285694	107
0	641	162.479517045915	108
0	649	163.927930506663	109
0	651	165.793225849764	110
0	657	167.538764664456	111
0	663	169.045536503214	112
0	665	170.856309707062	113
0	669	172.626143896971	114
0	677	173.802440907359	115
0	685	175.1450135729	116
0	687	176.959979838943	117
0	695	178.78853500287	118
0	703	180.644765839697	119
0	711	182.296259679617	120
0	713	183.951067729871	121
0	719	185.56469916298	122
0	727	186.850562574826	123
0	733	188.331285796845	124
0	741	190.276160391066	125
0	743	191.376278463537	126
0	751	193.096495109396	127
0	753	194.29449500029	128
0	761	195.496394502949	129
0	769	197.277152025159	130
0	771	198.736842321483	131
0	775	200.598818779708	132
0	783	201.898340048286	133
0	791	203.666240829293	134
0	795	204.8801818737	135
0	797	206.721244467439	136
0	805	207.757029444927	137
0	813	209.215188704913	138
0	821	210.422392155759	139
0	823	212.421709071396	140
0	831	214.130614616459	141
0	839	215.40302039638	142
0	847	216.453755019715	143
0	851	217.728268394962	144
0	857	219.368916056369	145
0	865	220.725425865984	146
0	873	222.698096229945	147
0	879	224.684487100009	148
0	887	226.620706327742	149
0	895	227.734874928387	150
0	901	229.08926920804	151
0	909	230.968503810249	152
0	913	232.030003027541	153
0	921	233.186588075261	154
0	929	234.842188393015	155
0	935	236.664989960629	156
0	937	237.702077758049	157
0	945	239.348058289864	158
1	5	1.317434556699	0
1	13	3.231463865926	1
1	21	4.390938603024	2
1	27	6.015464545017	3
1	31	7.508178325637	4
1	41	10.40545065008	5
1	45	12.372793982001	6
1	51	14.849496367056	7
1	57	16.34405555445	8
1	65	18.113556475431	9
1	73	19.618551393404	10
1	79	21.203763327272	11
1	87	22.336991378953	12
1	95	24.332778120378	13
1	105	27.511593292786	14
1	113	29.448022380414	15
1	117	31.217340584691	16
1	125	33.083868268965	17
1	129	34.789402989152	18
1	137	36.756585873524	19
1	145	38.685318399403	20
1	153	40.243465350727	21
1	157	41.238366317605	22
1	165	42.598721336118	23
1	173	43.960357382726	24
1	181	45.814242785863	25
1	185	47.194776534081	26
1	193	48.819103634989	27
1	199	50.723840023519	28
1	205	52.226939970011	29
1	213	53.700747451625	30
1	221	55.08947583851	31
1	229	56.621871810174	32
1	237	58.54687068501	33
1	245	60.404540296949	34
1	251	63.120586880964	35
1	255	64.971458511013	36
1	263	67.500827776885	37
1	271	69.385836448466	38
1	279	70.395921881048	39
1	285	71.915362912731	40
1	293	73.119914878017	41
1	297	74.747708493476	42
1	305	77.573659502095	43
1	315	82.413770090962	44
1	321	83.774970679662	45
1	329	84.850450442196	46
1	337	86.395998103327	47
1	349	91.322939805073	48
1	357	92.525982037138	49
1	365	93.539614210612	50
1	373	95.208394349397	51
1	381	97.66142311126	52
1	385	99.499569196856	53
1	393	100.845367195224	54
1	401	102.468278591957	55
1	409	104.326187703248	56
1	417	105.758920430389	57
1	427	109.107037145472	58
1	435	110.528530794048	59
1	443	112.400408608526	60
1	453	115.018781849264	61
1	461	116.892131104336	62
1	469	118.033381445688	63
1	477	119.630312332451	64
1	485	120.645551270305	65
1	493	122.618178422102	66
1	503	125.716045243503	67
1	509	126.89363313872	68
1	519	131.501132695037	69
1	525	132.706546827213	70
1	531	135.922406544154	71
1	539	137.274988253049	72
1	543	138.785034628642	73
1	547	139.953368080912	74
1	555	141.159621278074	75
1	563	142.74751143074	76
1	571	144.274928423502	77
1	575	145.941525274325	78
1	581	147.152726195052	79
1	589	148.583700344016	80
1	599	150.957630352659	81
1	603	152.071343463453	82
1	609	154.753486878111	83
1	617	156.340673641839	84
1	625	157.469590512941	85
1	633	159.34951513365	86
1	643	162.490465296674	87
1	653	165.807771342953	88
1	659	167.553763590908	89
1	667	170.88219211249	90
1	671	172.645410864782	91
1	679	173.822904292566	92
1	689	176.980546363335	93
1	697	178.836061529037	94
1	705	180.655819055316	95
1	715	183.968797408017	96
1	721	185.584675998493	97
1	729	186.862309405931	98
1	735	188.356198916125	99
1	745	191.39869246512	100
1	755	194.32825295078	101
1	763	195.507248767891	102
1	773	198.749515382355	103
1	777	200.616470432898	104
1	785	201.926318732125	105
1	793	203.681100678916	106
1	799	206.737951605098	107
1	807	207.7751021545	108
1	815	209.226641318395	109
1	825	212.439415982604	110
1	833	214.145759513317	111
1	841	215.416642646716	112
1	849	216.467935153513	113
1	853	217.749277336902	114
1	859	219.456428080322	115
1	867	220.73771424117	116
1	875	222.728162475368	117
1	881	224.69614608056	118
1	889	226.650233876499	119
1	897	227.747009362639	120
1	903	229.115873029584	121
1	911	230.994700157551	122
1	915	232.068164222588	123
1	923	233.202704863846	124
1	931	234.883020541551	125
1	939	237.716772358371	126
1	947	239.37455915533	127
2	7	1.33406556975	0
2	15	3.242741637655	1
2	23	4.412427958141	2
2	33	7.526079473931	3
2	53	14.862004536154	4
2	59	16.355892659432	5
2	67	18.139311176639	6
2	75	19.629823874278	7
2	81	21.220887154906	8
2	89	22.349985325207	9
2	97	24.345982559716	10
2	107	27.528832225569	11
2	119	31.234332483701	12
2	131	34.803301971439	13
2	139	36.773872182207	14
2	147	38.700326051589	15
2	159	41.252860917143	16
2	167	42.623309481666	17
2	175	43.980322705923	18
2	187	47.221045026684	19
2	195	48.844529479742	20
2	201	50.742395591448	21
2	207	52.246077409102	22
2	215	53.727209048456	23
2	223	55.125946316295	24
2	231	56.645070230184	25
2	239	58.560746719578	26
2	257	64.983383640815	27
2	265	67.518374198682	28
2	273	69.399058326042	29
2	281	70.40768561904	30
2	287	71.93810500665	31
2	299	74.757892883418	32
2	307	77.607812059936	33
2	317	82.429748946839	34
2	323	83.784996538813	35
2	331	84.8661689601	36
2	339	86.419618493674	37
2	351	91.333040024657	38
2	359	92.538768160925	39
2	367	93.551281437255	40
2	375	95.224848190947	41
2	387	99.509892413246	42
2	395	100.870052525294	43
2	403	102.511740189623	44
2	411	104.343935237597	45
2	419	105.780717098735	46
2	429	109.118063544012	47
2	437	110.539868606221	48
2	445	112.415671379825	49
2	455	115.042888252894	50
2	463	116.902543698018	51
2	471	118.04529841324	52
2	479	119.640733781111	53
2	487	120.669217688167	54
2	495	122.630702892134	55
2	505	125.738978023557	56
2	511	126.916901525146	57
2	521	131.523788865933	58
2	533	135.933028571098	59
2	549	139.964429196192	60
2	557	141.174176552303	61
2	565	142.757932637772	62
2	577	145.9520750136	63
2	583	147.16542313952	64
2	591	148.605439955907	65
2	611	154.764915921721	66
2	619	156.356001229912	67
2	627	157.503226886741	68
2	635	159.379758492531	69
2	645	162.507650168068	70
2	655	165.831592973484	71
2	661	167.566683796762	72
2	673	172.659547379572	73
2	681	173.83516528004	74
2	691	177.005433507192	75
2	699	178.852871901491	76
2	707	180.665837899637	77
2	717	184.002050276356	78
2	723	185.60119951262	79
2	731	186.872627429762	80
2	737	188.393390506268	81
2	747	191.4114888787	82
2	757	194.346924944417	83
2	765	195.523971502935	84
2	779	200.641876123031	85
2	787	201.94733655165	86
2	801	206.757754542523	87
2	809	207.798762177078	88
2	817	209.240282575238	89
2	827	212.451409866252	90
2	835	214.156454070395	91
2	843	215.42889464138	92
2	855	217.776133542723	93
2	861	219.472619759063	94
2	869	220.74951068263	95
2	877	222.747742545985	96
2	883	224.710889779843	97
2	891	226.662214639735	98
2	899	227.758310881381	99
2	905	229.128650757961	100
2	917	232.085660520086	101
2	925	233.224433717216	102
2	933	234.89748382385	103
2	941	237.72783248215	104
2	949	239.387349507929	105
3	9	1.34793008644	0
3	17	3.259380937844	1
3	35	7.541310275183	2
3	61	16.370472957362	3
3	69	18.160189733988	4
3	83	21.233336828582	5
3	91	22.376549325157	6
3	99	24.371987360698	7
3	109	27.541329644209	8
3	121	31.25644051236	9
3	133	34.827653876701	10
3	141	36.80545457106	11
3	149	38.73643711268	12
3	161	41.283922903655	13
3	169	42.657899014009	14
3	177	43.994506866106	15
3	189	47.233650703011	16
3	209	52.257204310372	17
3	217	53.753214850466	18
3	225	55.173948177229	19
3	233	56.677739888408	20
3	241	58.575809313432	21
3	267	67.531574018371	22
3	275	69.41062732476	23
3	289	71.948633617036	24
3	325	83.800683662699	25
3	333	84.880669831083	26
3	341	86.443650089601	27
3	353	91.347708766846	28
3	361	92.560163355486	29
3	369	93.590598524272	30
3	389	99.520593797511	31
3	397	100.885875537933	32
3	405	102.536895197771	33
3	413	104.359577746048	34
3	421	105.794930603311	35
3	431	109.130629205147	36
3	439	110.550640233565	37
3	447	112.439797774841	38
3	457	115.08234308301	39
3	465	116.917572505018	40
3	473	118.056908042013	41
3	481	119.656278756973	42
3	489	120.683367741955	43
3	497	122.654575971407	44
3	535	135.94440792338	45
3	551	139.978978035487	46
3	559	141.219426403085	47
3	567	142.771216389048	48
3	585	147.188407010958	49
3	593	148.618311040783	50
3	613	154.778930506731	51
3	621	156.36630357223	52
3	629	157.516972190027	53
3	637	159.392227566234	54
3	647	162.521608362279	55
3	675	172.694936042402	56
3	683	173.867837919852	57
3	693	177.028230929225	58
3	701	178.866706868013	59
3	709	180.676370790927	60
3	725	185.622427213403	61
3	739	188.406025963354	62
3	749	191.431749177708	63
3	759	194.361980109888	64
3	767	195.546972870796	65
3	781	200.662078672953	66
3	789	201.958739113719	67
3	803	206.770907920938	68
3	811	207.832132872523	69
3	819	209.256910160762	70
3	829	212.462338141311	71
3	837	214.176234655978	72
3	845	215.478096993192	73
3	863	219.492069721208	74
3	871	220.761295046201	75
3	885	224.728287096837	76
3	893	226.677325305263	77
3	907	229.146089815803	78
3	919	232.1048872505	79
3	927	233.239814448103	80
3	943	237.741478233616	81
3	951	239.397873535536	82
4	10	1.35793008644	0
4	18	3.269380937844	1
4	36	7.551310275183	2
4	62	16.380472957362	3
4	70	18.170189733988	4
4	84	21.243336828582	5
4	92	22.386549325157	6
4	100	24.381987360698	7
4	122	31.26644051236	8
4	142	36.81545457106	9
4	150	38.74643711268	10
4	170	42.667899014009	11
4	190	47.243650703011	12
4	210	52.267204310372	13
4	218	53.763214850466	14
4	226	55.183948177229	15
4	242	58.585809313432	16
4	268	67.541574018371	17
4	290	71.958633617036	18
4	326	83.810683662699	19
4	334	84.890669831083	20
4	342	86.453650089601	21
4	354	91.357708766846	22
4	362	92.570163355486	23
4	370	93.600598524272	24
4	390	99.530593797511	25
4	398	100.895875537933	26
4	414	104.369577746048	27
4	422	105.804930603311	28
4	432	109.140629205147	29
4	440	110.560640233565	30
4	458	115.09234308301	31
4	466	116.927572505018	32
4	474	118.066908042013	33
4	490	120.693367741955	34
4	498	122.664575971407	35
4	536	135.95440792338	36
4	552	139.988978035487	37
4	560	141.229426403085	38
4	568	142.781216389048	39
4	586	147.198407010958	40
4	594	148.628311040783	41
4	622	156.37630357223	42
4	630	157.526972190027	43
4	638	159.402227566234	44
4	648	162.531608362279	45
4	676	172.704936042402	46
4	684	173.877837919852	47
4	694	177.038230929225	48
4	702	178.876706868013	49
4	710	180.686370790927	50
4	726	185.632427213403	51
4	740	188.416025963354	52
4	760	194.371980109888	53
4	782	200.672078672953	54
4	790	201.968739113719	55
4	804	206.780907920938	56
4	812	207.842132872523	57
4	830	212.472338141311	58
4	838	214.186234655978	59
4	846	215.488096993192	60
4	864	219.502069721208	61
4	872	220.771295046201	62
4	886	224.738287096837	63
4	894	226.687325305263	64
4	908	229.156089815803	65
4	920	232.1148872505	66
4	944	237.751478233616	67
4	952	239.407873535536	68

