version 2
run General-0-20231004-16:29:50-5849
attr configname General
attr datetime 20231004-16:29:50
attr experiment General
attr inifile omnetpp.ini
attr iterationvars ""
attr iterationvarsf ""
attr measurement ""
attr network Multihop
attr processid 5849
attr repetition 0
attr replication #0
attr resultdir results
attr runnumber 0
attr seedset 0
param Multihop.node[*].transmissionTime 1s
param Multihop.node[*].delayTime "uniform(0.01s, 0.2s)"
param Multihop.node[*].processingTime exponential(0.01s)
param Multihop.node[*].lossProbability 0.01

vector 0 Multihop.node[0] txVector ETV
vector 1 Multihop.node[1] txVector ETV
vector 2 Multihop.node[2] txVector ETV
vector 3 Multihop.node[3] txVector ETV
vector 4 Multihop.node[4] txVector ETV
vector 5 Multihop.node[5] rxVector ETV
0	1	0.114274565438	0
0	12	1.119125847075	1
0	23	2.126652588208	2
0	34	3.131245069581	3
0	45	4.137434364177	4
0	56	5.151648010978	5
0	67	6.160051358034	6
0	78	7.183340491776	7
0	89	8.194329616452	8
0	100	9.198260742025	9
0	111	10.200019877479	10
0	122	11.204144889778	11
0	133	12.221348206355	12
0	144	13.228474042288	13
0	155	14.229754609941	14
0	166	15.232198564422	15
0	177	16.240777520833	16
0	184	17.259250797343	17
0	195	18.259453921931	18
0	206	19.262857389313	19
0	217	20.265381589242	20
0	228	21.279949774828	21
0	239	22.291743604164	22
0	250	23.301388139819	23
0	261	24.311011890377	24
0	272	25.319037410235	25
0	283	26.323619139075	26
0	294	27.324667957431	27
0	305	28.326441213182	28
0	316	29.327949123284	29
0	327	30.348076850646	30
0	338	31.361939764166	31
0	349	32.377723891387	32
0	360	33.39303220365	33
0	371	34.402550500725	34
0	382	35.404938029453	35
0	393	36.407518157092	36
0	404	37.44498510323	37
0	415	38.451030915413	38
0	426	39.474720097121	39
0	437	40.483595116406	40
0	444	41.487332749344	41
0	455	42.489759934281	42
0	466	43.496141820337	43
0	477	44.499393980517	44
0	488	45.501316594925	45
0	499	46.508012000834	46
0	510	47.51046398176	47
0	521	48.51321926113	48
0	530	49.531119157175	49
0	541	50.569059395006	50
0	552	51.575837415027	51
0	563	52.594738432008	52
0	574	53.63675702627	53
0	585	54.654023360067	54
0	596	55.662444723095	55
0	607	56.663290518013	56
0	618	57.663430983925	57
0	629	58.674579858144	58
0	640	59.675595198983	59
0	651	60.681685843536	60
0	662	61.688805924192	61
0	673	62.691809174995	62
0	680	63.714070014889	63
0	691	64.714870803448	64
0	702	65.72131988836	65
0	713	66.724571597065	66
0	724	67.733220978159	67
0	735	68.738313003028	68
0	746	69.738587424032	69
0	757	70.744714878481	70
0	768	71.764594273029	71
0	779	72.76967646757	72
0	790	73.773343519108	73
0	801	74.778472789026	74
0	812	75.779048718194	75
0	823	76.784648801927	76
0	834	77.789368482805	77
0	845	78.794628790763	78
0	856	79.798379410194	79
0	867	80.809341335804	80
0	878	81.822744095424	81
0	889	82.825391918157	82
0	900	83.848128989824	83
0	911	84.850787155314	84
0	922	85.852212184771	85
0	933	86.85817768394	86
0	944	87.860428108879	87
0	955	88.894837549355	88
0	966	89.900770855038	89
0	977	90.935127088963	90
0	988	91.943800009151	91
0	999	92.950849502365	92
0	1010	93.95484745509	93
0	1021	94.955952613856	94
0	1032	95.978289012367	95
0	1043	96.981611618603	96
0	1054	97.989777545491	97
0	1065	98.999512270927	98
0	1068	100.034206209315	99
0	1079	101.06393829271	100
0	1090	102.088564735404	101
0	1101	103.104211300911	102
0	1112	104.110391824682	103
0	1123	105.11182431172	104
0	1134	106.11311309818	105
0	1145	107.115034053941	106
0	1156	108.124145512022	107
0	1167	109.124941213573	108
0	1178	110.131378461632	109
0	1189	111.135008933176	110
0	1194	112.144104640225	111
0	1205	113.155509884975	112
0	1216	114.17764215729	113
0	1227	115.179074390005	114
0	1238	116.179457277983	115
0	1249	117.216848762763	116
0	1260	118.231341981458	117
0	1271	119.263220823181	118
0	1282	120.263760192745	119
0	1293	121.275309938081	120
0	1300	122.276255605446	121
0	1311	123.276858785684	122
0	1322	124.277911929876	123
0	1333	125.289040567992	124
0	1344	126.293736648313	125
0	1355	127.301435267671	126
0	1366	128.309680984903	127
0	1377	129.341657572477	128
0	1386	130.369338573054	129
0	1397	131.376639793257	130
0	1408	132.379849769836	131
0	1419	133.399248387432	132
0	1430	134.403285916503	133
0	1441	135.417189809775	134
0	1452	136.428203770558	135
0	1463	137.432926058044	136
0	1474	138.433951850643	137
0	1485	139.433990528875	138
0	1496	140.443370610031	139
0	1507	141.45072617758	140
0	1518	142.489145340615	141
0	1529	143.510404646314	142
0	1540	144.521971639211	143
0	1551	145.525454125553	144
0	1562	146.562338845308	145
0	1573	147.56596575667	146
0	1584	148.56930771082	147
0	1595	149.572080786109	148
0	1604	150.598309041328	149
0	1615	151.602646703223	150
0	1626	152.603535745472	151
0	1637	153.617209802662	152
0	1648	154.620279576487	153
0	1659	155.622012951699	154
0	1670	156.622273891349	155
0	1681	157.627688616286	156
0	1692	158.650368520194	157
0	1703	159.663735130582	158
0	1714	160.68236899042	159
0	1725	161.685693509636	160
0	1736	162.687937581671	161
0	1747	163.691886834592	162
0	1758	164.730132531156	163
0	1769	165.746008824032	164
0	1780	166.750516922138	165
0	1791	167.757412051357	166
0	1802	168.769361332691	167
0	1813	169.77064103214	168
0	1824	170.777519779855	169
0	1835	171.781710487891	170
0	1846	172.782235748795	171
0	1857	173.797068650778	172
0	1868	174.805853605683	173
0	1879	175.822667249635	174
0	1890	176.860617572972	175
0	1901	177.863072267793	176
0	1912	178.865395321434	177
0	1923	179.875147611858	178
0	1934	180.881904635016	179
0	1945	181.909899862701	180
0	1956	182.927551480497	181
0	1967	183.935742525931	182
0	1978	184.941083485811	183
0	1989	185.954433916654	184
0	2000	186.977257422304	185
0	2011	187.998420260784	186
0	2022	189.00618149256	187
0	2033	190.012904328677	188
0	2044	191.031218058478	189
0	2055	192.033268008219	190
0	2066	193.043609720607	191
0	2077	194.044971286341	192
0	2088	195.048540742704	193
0	2099	196.083345056908	194
0	2110	197.089367139849	195
0	2121	198.101573178568	196
0	2132	199.102200214291	197
1	3	0.136833873018	0
1	14	1.132657438466	1
1	25	2.145046916737	2
1	36	3.172746768868	3
1	47	4.162599723917	4
1	58	5.162767472584	5
1	69	6.170241043726	6
1	80	7.199317952544	7
1	91	8.215435590909	8
1	102	9.208652573589	9
1	113	10.22060730463	10
1	124	11.225376572793	11
1	135	12.23236965517	12
1	146	13.239047311552	13
1	157	14.243266370835	14
1	168	15.250526999583	15
1	179	16.27727008012	16
1	186	17.279668603885	17
1	197	18.287111332655	18
1	208	19.278536430848	19
1	219	20.305904405811	20
1	230	21.295256999794	21
1	241	22.314662696852	22
1	252	23.317829186902	23
1	263	24.326611501078	24
1	274	25.329379444419	25
1	285	26.339343754589	26
1	296	27.33901141399	27
1	307	28.346000877421	28
1	318	29.33828699114	29
1	329	30.395176456565	30
1	340	31.376085889593	31
1	351	32.390258948438	32
1	362	33.409964201345	33
1	373	34.420221297271	34
1	384	35.417454015584	35
1	395	36.420453233611	36
1	406	37.464599498946	37
1	417	38.468722113424	38
1	428	39.48619605745	39
1	439	40.511376549774	40
1	446	41.502874457634	41
1	457	42.529204737055	42
1	468	43.518575328116	43
1	479	44.518231837077	44
1	490	45.523506588377	45
1	501	46.522406554739	46
1	512	47.534297146422	47
1	523	48.524276132871	48
1	532	49.582678868131	49
1	543	50.599974960732	50
1	554	51.598409784983	51
1	565	52.614358551274	52
1	576	53.66076378324	53
1	587	54.666128692949	54
1	598	55.676654656075	55
1	609	56.67852019455	56
1	620	57.681055220767	57
1	631	58.687395098369	58
1	642	59.688554217715	59
1	653	60.703183257413	60
1	664	61.699709296633	61
1	675	62.706490239527	62
1	682	63.725502545103	63
1	693	64.732186256839	64
1	704	65.746628372549	65
1	715	66.735951129384	66
1	726	67.744188952882	67
1	737	68.771751699436	68
1	748	69.761732645013	69
1	759	70.763654892508	70
1	770	71.776309659303	71
1	781	72.780324124498	72
1	792	73.784619254846	73
1	803	74.814964671648	74
1	814	75.789953792895	75
1	825	76.795353821411	76
1	836	77.806122041507	77
1	847	78.806407558342	78
1	858	79.824566020858	79
1	869	80.826625111534	80
1	880	81.838670669603	81
1	891	82.839676994199	82
1	902	83.859419374856	83
1	913	84.872491512614	84
1	924	85.866900141687	85
1	935	86.871808472342	86
1	946	87.878380330892	87
1	957	88.956688843585	88
1	968	89.922680669572	89
1	979	90.953043179909	90
1	990	91.99099409226	91
1	1001	92.964565659913	92
1	1012	93.998996704114	93
1	1023	94.970237024144	94
1	1034	95.99959358435	95
1	1045	96.991918636333	96
1	1056	98.004258425175	97
1	1070	100.055946910683	98
1	1081	101.073965361456	99
1	1092	102.109569420709	100
1	1103	103.115234318721	101
1	1114	104.137926305865	102
1	1125	105.161238898566	103
1	1136	106.134529253415	104
1	1147	107.129962841625	105
1	1158	108.136864170408	106
1	1169	109.146863735994	107
1	1180	110.143416315454	108
1	1191	111.206968034363	109
1	1196	112.16457656278	110
1	1207	113.166162820931	111
1	1218	114.193309176888	112
1	1229	115.190092546425	113
1	1240	116.231211714025	114
1	1251	117.248902770801	115
1	1262	118.241561255265	116
1	1273	119.274468754104	117
1	1284	120.282828823818	118
1	1295	121.296003248665	119
1	1302	122.295909963443	120
1	1313	123.293219290395	121
1	1324	124.288316509433	122
1	1335	125.303267465873	123
1	1346	126.314572130196	124
1	1357	127.312605968064	125
1	1368	128.324783576407	126
1	1379	129.352747891113	127
1	1388	130.411112879269	128
1	1399	131.405140685456	129
1	1410	132.389937048799	130
1	1421	133.411017194493	131
1	1432	134.425766098816	132
1	1443	135.453391825544	133
1	1454	136.440344592505	134
1	1465	137.447465972511	135
1	1476	138.463047400828	136
1	1487	139.445957735761	137
1	1498	140.457351220081	138
1	1509	141.463835098211	139
1	1520	142.507707002189	140
1	1531	143.549413736726	141
1	1542	144.53459919331	142
1	1553	145.541488913477	143
1	1564	146.575917372031	144
1	1575	147.576749254681	145
1	1586	148.606687943773	146
1	1597	149.584962917788	147
1	1606	150.620123095314	148
1	1617	151.635429800651	149
1	1628	152.616190695898	150
1	1639	153.634694445011	151
1	1650	154.634562156775	152
1	1661	155.641319687265	153
1	1672	156.632864181878	154
1	1683	157.639587533861	155
1	1694	158.668927012408	156
1	1705	159.673786793443	157
1	1716	160.699505101953	158
1	1727	161.699843075463	159
1	1738	162.708094708402	160
1	1749	163.705692743585	161
1	1760	164.740603589531	162
1	1771	165.760232858526	163
1	1782	166.760979817197	164
1	1793	167.787570226	165
1	1804	168.785585312934	166
1	1815	169.784712803945	167
1	1826	170.788434166335	168
1	1837	171.805872422696	169
1	1848	172.793334776547	170
1	1859	173.809513219704	171
1	1870	174.829986303836	172
1	1881	175.834179944085	173
1	1892	176.877624283394	174
1	1903	177.909499364673	175
1	1914	178.886330515205	176
1	1925	179.886329773808	177
1	1936	180.892655646725	178
1	1947	181.926958382652	179
1	1958	182.953179996041	180
1	1969	183.971291333828	181
1	1980	184.956445477712	182
1	1991	185.965461736974	183
1	2002	187.012548736704	184
1	2013	188.015761648947	185
1	2024	189.036450362131	186
1	2035	190.025697207697	187
1	2046	191.043816877999	188
1	2057	192.098031196733	189
1	2068	193.056502713889	190
1	2079	194.062432736311	191
1	2090	195.061643948851	192
1	2101	196.096432514587	193
1	2112	197.101606549453	194
1	2123	198.116996975505	195
1	2134	199.135720773142	196
2	5	0.156066104333	0
2	16	1.143241285157	1
2	27	2.181029457595	2
2	38	3.184259077405	3
2	49	4.173858468011	4
2	60	5.179184419604	5
2	71	6.189854853117	6
2	82	7.218812898379	7
2	93	8.22779765797	8
2	104	9.228711283641	9
2	115	10.233528109963	10
2	126	11.239192131227	11
2	137	12.260567844363	12
2	148	13.255046780418	13
2	159	14.254530257199	14
2	170	15.280559404808	15
2	181	16.291105682261	16
2	188	17.3080814286	17
2	199	18.29715839806	18
2	210	19.302646674941	19
2	221	20.321830646086	20
2	232	21.316509819962	21
2	243	22.331620691461	22
2	254	23.334180464058	23
2	265	24.338067240862	24
2	276	25.374104799212	25
2	287	26.371592901161	26
2	298	27.355346040167	27
2	309	28.357322714517	28
2	320	29.388785459528	29
2	331	30.42454222894	30
2	342	31.392810494761	31
2	353	32.404495519452	32
2	364	33.420481030403	33
2	375	34.43913508304	34
2	386	35.429922608272	35
2	397	36.43105104324	36
2	408	37.482419256155	37
2	419	38.501420513582	38
2	430	39.498799571565	39
2	441	40.531291592703	40
2	448	41.534532094443	41
2	459	42.552329816985	42
2	470	43.530244074528	43
2	481	44.54817222909	44
2	492	45.539726957568	45
2	503	46.560612914223	46
2	514	47.557453409005	47
2	525	48.534441793815	48
2	534	49.604835772865	49
2	545	50.614102259399	50
2	556	51.615068209849	51
2	567	52.624491803722	52
2	578	53.670804346453	53
2	589	54.683289146129	54
2	600	55.702207599679	55
2	611	56.691162899191	56
2	622	57.694687642956	57
2	633	58.702851675517	58
2	644	59.707517509765	59
2	655	60.725078219926	60
2	666	61.720498565718	61
2	677	62.725347845987	62
2	684	63.750607161115	63
2	695	64.745850769757	64
2	706	65.764757356161	65
2	717	66.750938052713	66
2	728	67.778329117187	67
2	739	68.793464336385	68
2	750	69.786298247129	69
2	761	70.793154661626	70
2	772	71.835144649206	71
2	783	72.795841160624	72
2	794	73.800486942913	73
2	805	74.826013999121	74
2	816	75.802661036802	75
2	827	76.808256555562	76
2	838	77.856097676274	77
2	849	78.82658973413	78
2	860	79.83529653743	79
2	871	80.84214313275	80
2	882	81.883377120408	81
2	893	82.866549177087	82
2	904	83.872184102021	83
2	915	84.883092796305	84
2	926	85.880821754583	85
2	937	86.90008373502	86
2	948	87.895712584279	87
2	959	88.972700390049	88
2	970	89.937434066268	89
2	981	90.966256582938	90
2	992	92.004182502744	91
2	1003	92.979234303349	92
2	1014	94.010842862843	93
2	1025	94.993711512381	94
2	1036	96.019783116161	95
2	1047	97.014309001407	96
2	1058	98.021244235236	97
2	1072	100.066994033417	98
2	1083	101.094383806104	99
2	1094	102.125379507264	100
2	1105	103.131068920444	101
2	1116	104.155672443229	102
2	1127	105.191779423405	103
2	1138	106.147913664743	104
2	1149	107.170358157526	105
2	1160	108.155560324016	106
2	1171	109.159705933429	107
2	1182	110.159121375335	108
2	1198	112.174628594108	109
2	1209	113.185508625094	110
2	1220	114.229650490847	111
2	1231	115.204299223149	112
2	1242	116.247156374192	113
2	1253	117.273365846523	114
2	1264	118.253037574097	115
2	1275	119.285600487428	116
2	1286	120.315066651976	117
2	1297	121.325812801626	118
2	1304	122.310729755539	119
2	1315	123.304450394944	120
2	1326	124.304927307441	121
2	1337	125.32577695248	122
2	1348	126.334389979252	123
2	1359	127.327798505313	124
2	1370	128.342352119579	125
2	1381	129.382934528712	126
2	1390	130.437024901902	127
2	1401	131.419812217721	128
2	1412	132.400189660017	129
2	1423	133.429219784419	130
2	1434	134.44133380693	131
2	1445	135.463685625017	132
2	1456	136.47536617233	133
2	1467	137.460489253891	134
2	1478	138.478081661983	135
2	1489	139.465447599229	136
2	1500	140.483581120252	137
2	1511	141.494823282497	138
2	1522	142.528026209218	139
2	1533	143.607560716723	140
2	1544	144.552339913737	141
2	1555	145.558300266258	142
2	1566	146.586739997686	143
2	1577	147.592277248016	144
2	1588	148.631483695186	145
2	1599	149.601567656731	146
2	1608	150.642335897083	147
2	1619	151.66012513381	148
2	1630	152.627039433136	149
2	1641	153.651382431853	150
2	1652	154.645486031963	151
2	1663	155.652548845147	152
2	1674	156.643698662054	153
2	1685	157.650721581083	154
2	1696	158.684405699348	155
2	1707	159.69563365495	156
2	1718	160.71087119055	157
2	1729	161.719011305836	158
2	1740	162.732396901885	159
2	1751	163.721614491625	160
2	1762	164.752707758563	161
2	1773	165.784967636293	162
2	1784	166.774914641167	163
2	1795	167.807451712532	164
2	1806	168.798658985662	165
2	1817	169.796641033833	166
2	1828	170.803319059199	167
2	1839	171.819649559751	168
2	1850	172.812865310809	169
2	1861	173.842859101925	170
2	1872	174.842882660815	171
2	1883	175.846759396378	172
2	1894	176.892607171566	173
2	1905	177.921271008782	174
2	1916	178.910350284675	175
2	1927	179.902472576594	176
2	1938	180.905942267302	177
2	1949	182.022568565245	178
2	1960	182.970415913722	179
2	1971	183.988071189045	180
2	1982	184.966771284248	181
2	1993	185.982696196975	182
2	2004	187.027109654361	183
2	2015	188.026073058281	184
2	2026	189.062297219199	185
2	2037	190.044580048719	186
2	2048	191.055254991547	187
2	2059	192.109416415154	188
2	2070	193.072485166043	189
2	2081	194.073962118678	190
2	2092	195.073869505221	191
2	2103	196.106568522347	192
2	2114	197.138124455707	193
2	2125	198.127050217489	194
2	2136	199.156254129277	195
3	7	0.173938115733	0
3	18	1.156424846565	1
3	29	2.19176631115	2
3	40	3.214667999564	3
3	51	4.194072786754	4
3	62	5.191246452424	5
3	73	6.209324819889	6
3	84	7.252076408996	7
3	95	8.239177944854	8
3	106	9.270640750062	9
3	117	10.249807525773	10
3	128	11.26425848456	11
3	139	12.271578192116	12
3	150	13.265248681699	13
3	161	14.268357266688	14
3	172	15.29767188418	15
3	190	17.321156605838	16
3	201	18.31848473948	17
3	212	19.317690113007	18
3	223	20.350565244885	19
3	234	21.329383924723	20
3	245	22.372875375038	21
3	256	23.356770899231	22
3	267	24.351609482184	23
3	278	25.387976100133	24
3	289	26.39800187694	25
3	300	27.383743368018	26
3	311	28.386162003383	27
3	322	29.403458185192	28
3	333	30.434660061259	29
3	344	31.406950283988	30
3	355	32.440817708077	31
3	366	33.442490739468	32
3	377	34.462232936754	33
3	388	35.448352396026	34
3	399	36.446750018893	35
3	410	37.511702857524	36
3	421	38.557817038846	37
3	432	39.53013520444	38
3	450	41.55592267095	39
3	461	42.56525933157	40
3	472	43.55335379821	41
3	483	44.559422554989	42
3	494	45.568079591597	43
3	505	46.585108461987	44
3	516	47.567920286441	45
3	527	48.57096737897	46
3	536	49.616840194816	47
3	547	50.656691469171	48
3	558	51.637397014479	49
3	569	52.638757161842	50
3	580	53.683944325434	51
3	591	54.695829259913	52
3	602	55.717507215472	53
3	613	56.702584154305	54
3	624	57.726131497601	55
3	635	58.721001858826	56
3	646	59.723989256805	57
3	657	60.73841225331	58
3	668	61.732812775438	59
3	686	63.786531647203	60
3	697	64.764467444675	61
3	708	65.776499307765	62
3	719	66.792266347608	63
3	730	67.789195287131	64
3	741	68.815491474223	65
3	752	69.796396391493	66
3	763	70.809265237239	67
3	774	71.846032973033	68
3	785	72.808834444448	69
3	796	73.815459035776	70
3	807	74.865073195158	71
3	818	75.830956458361	72
3	829	76.820756063728	73
3	840	77.868903435536	74
3	851	78.843329168572	75
3	862	79.856803163359	76
3	873	80.860232929701	77
3	884	81.897889508393	78
3	895	82.91887933505	79
3	906	83.88477522458	80
3	917	84.906212427116	81
3	928	85.90221970865	82
3	939	86.912798434684	83
3	950	87.910001702637	84
3	961	88.983435453823	85
3	972	89.948488027567	86
3	983	90.985227113079	87
3	994	92.049273138254	88
3	1005	92.996678085963	89
3	1016	94.044018123469	90
3	1027	95.015121945724	91
3	1038	96.037731844522	92
3	1049	97.024388154872	93
3	1060	98.032912192817	94
3	1074	100.080415780333	95
3	1085	101.113556524073	96
3	1096	102.146934254551	97
3	1107	103.148407620114	98
3	1118	104.187499582122	99
3	1129	105.208765459074	100
3	1140	106.158352937084	101
3	1151	107.183925320053	102
3	1162	108.167137044544	103
3	1173	109.170110149206	104
3	1184	110.171198408197	105
3	1200	112.219768382338	106
3	1211	113.202002732362	107
3	1222	114.248617349213	108
3	1233	115.22324028203	109
3	1244	116.284903920408	110
3	1255	117.295347360401	111
3	1266	118.266057124132	112
3	1277	119.304509025447	113
3	1288	120.34025034346	114
3	1306	122.321745243245	115
3	1317	123.320557936693	116
3	1328	124.321056980128	117
3	1339	125.345970904361	118
3	1350	126.368923037667	119
3	1361	127.342996724762	120
3	1372	128.353242979154	121
3	1383	129.393230776235	122
3	1392	130.495400776393	123
3	1403	131.432333614485	124
3	1414	132.411747851878	125
3	1425	133.454067925159	126
3	1436	134.454924763758	127
3	1447	135.496289629491	128
3	1458	136.494033583037	129
3	1469	137.47734045467	130
3	1480	138.490735361561	131
3	1491	139.476296313339	132
3	1502	140.511682230367	133
3	1513	141.509474139934	134
3	1524	142.542559053926	135
3	1535	143.62228865217	136
3	1546	144.577169507381	137
3	1557	145.583358777689	138
3	1568	146.609718363377	139
3	1579	147.603415854589	140
3	1590	148.650925107707	141
3	1601	149.611975801735	142
3	1610	150.661400909855	143
3	1621	151.6745478457	144
3	1632	152.640925768798	145
3	1643	153.661387893053	146
3	1654	154.664704824546	147
3	1665	155.675564266232	148
3	1676	156.660978890884	149
3	1687	157.677722820376	150
3	1698	158.706544304979	151
3	1709	159.73082955654	152
3	1720	160.730585870086	153
3	1731	161.762033145361	154
3	1742	162.746845886575	155
3	1753	163.737289817463	156
3	1764	164.770065691833	157
3	1775	165.808281679797	158
3	1786	166.791784597526	159
3	1797	167.822583796344	160
3	1808	168.817228216677	161
3	1819	169.807872867556	162
3	1830	170.826391973049	163
3	1841	171.840359110215	164
3	1852	172.836019335735	165
3	1863	173.853297828705	166
3	1874	174.879808659492	167
3	1885	175.857472766442	168
3	1896	176.90758187134	169
3	1907	177.934707762632	170
3	1918	178.92961565378	171
3	1929	179.916363577178	172
3	1940	180.939229526174	173
3	1951	182.0347658027	174
3	1962	182.980513218781	175
3	1973	184.018772612427	176
3	1984	184.977400629067	177
3	1995	186.020569083302	178
3	2006	187.063822901065	179
3	2017	188.03861441741	180
3	2028	189.072626131897	181
3	2039	190.068573444343	182
3	2050	191.092002585486	183
3	2061	192.125792732347	184
3	2072	193.085886161874	185
3	2083	194.087770780222	186
3	2094	195.090654700706	187
3	2105	196.123180219188	188
3	2116	197.149433085065	189
3	2127	198.137164418354	190
3	2138	199.176495877067	191
4	9	0.1894486006	0
4	20	1.172919310048	1
4	31	2.202677921411	2
4	42	3.231085091291	3
4	53	4.205620083559	4
4	64	5.21459935427	5
4	75	6.228920299663	6
4	86	7.263122021254	7
4	97	8.252967564497	8
4	108	9.291219014196	9
4	119	10.262610295858	10
4	130	11.304130383479	11
4	141	12.319068506712	12
4	152	13.281077465588	13
4	163	14.283706110446	14
4	174	15.33252770775	15
4	192	17.336228607071	16
4	203	18.331631956089	17
4	214	19.350327448766	18
4	225	20.372587630557	19
4	236	21.343141313147	20
4	247	22.393203345144	21
4	258	23.370167546557	22
4	269	24.37004836691	23
4	280	25.400476915083	24
4	291	26.420172071893	25
4	302	27.417245140916	26
4	313	28.412629194396	27
4	324	29.418906756473	28
4	335	30.449122589464	29
4	346	31.418928579063	30
4	357	32.46300567611	31
4	368	33.501282068348	32
4	379	34.475971801713	33
4	390	35.464369185891	34
4	401	36.460486716837	35
4	412	37.535322174767	36
4	423	38.570261949066	37
4	434	39.563613642054	38
4	452	41.572013117077	39
4	463	42.577658566764	40
4	474	43.573745854576	41
4	485	44.576707793416	42
4	496	45.580372034849	43
4	507	46.608918092944	44
4	518	47.580266844934	45
4	538	49.634022659617	46
4	549	50.669327240299	47
4	560	51.654291359857	48
4	571	52.650360502787	49
4	582	53.699228997717	50
4	593	54.70685894355	51
4	604	55.731958708866	52
4	615	56.713133228031	53
4	626	57.739016624704	54
4	637	58.750702434482	55
4	648	59.740682285525	56
4	659	60.753191433185	57
4	670	61.76160395978	58
4	688	63.809090582046	59
4	699	64.806515532971	60
4	710	65.78805216362	61
4	721	66.804338199431	62
4	732	67.815308607122	63
4	743	68.829462283723	64
4	754	69.810082220889	65
4	765	70.849604662963	66
4	776	71.857025188298	67
4	787	72.837741735992	68
4	798	73.833048683518	69
4	809	74.895436137031	70
4	820	75.84834565856	71
4	831	76.833675524445	72
4	842	77.883592648809	73
4	853	78.898807407091	74
4	864	79.871595290304	75
4	875	80.873616390888	76
4	886	81.912956740532	77
4	897	82.963607892109	78
4	908	83.9014990536	79
4	919	84.937559451061	80
4	930	85.928093280947	81
4	941	86.929777810172	82
4	952	87.920250983594	83
4	963	88.996899787098	84
4	974	89.990741188404	85
4	985	91.017934214153	86
4	996	92.059531418698	87
4	1007	93.020564858702	88
4	1018	94.058021938784	89
4	1029	95.034860731639	90
4	1040	96.050915774683	91
4	1051	97.039051125136	92
4	1062	98.048454877551	93
4	1076	100.098160948212	94
4	1087	101.132441811196	95
4	1098	102.167392507479	96
4	1109	103.170247897477	97
4	1120	104.21871112669	98
4	1131	105.244320636241	99
4	1142	106.169587031799	100
4	1153	107.195674422654	101
4	1164	108.181226219836	102
4	1175	109.180728310692	103
4	1186	110.193758364185	104
4	1202	112.240670838203	105
4	1213	113.215343483193	106
4	1224	114.264269902026	107
4	1235	115.244004186624	108
4	1246	116.306052588949	109
4	1257	117.309434536943	110
4	1268	118.296542955698	111
4	1279	119.328189565661	112
4	1290	120.352627002171	113
4	1308	122.373697929446	114
4	1319	123.36965934439	115
4	1330	124.333739211061	116
4	1341	125.361065189463	117
4	1352	126.390064185032	118
4	1363	127.356868699434	119
4	1374	128.374199477856	120
4	1394	130.509789318163	121
4	1405	131.443173214885	122
4	1416	132.428958375922	123
4	1427	133.470163516967	124
4	1438	134.465654889196	125
4	1449	135.51127479281	126
4	1460	136.510119776578	127
4	1471	137.498789319165	128
4	1482	138.509540545944	129
4	1493	139.507658252602	130
4	1504	140.527048451197	131
4	1515	141.51948798306	132
4	1526	142.563576673099	133
4	1537	143.666146061199	134
4	1548	144.600896747439	135
4	1559	145.611952843413	136
4	1570	146.65677826975	137
4	1581	147.621814189603	138
4	1592	148.66095191429	139
4	1612	150.679106283063	140
4	1623	151.694267609631	141
4	1634	152.660375948704	142
4	1645	153.676928734501	143
4	1656	154.687235605486	144
4	1667	155.695710533775	145
4	1678	156.685048196337	146
4	1689	157.694131081091	147
4	1700	158.720963636868	148
4	1711	159.753224028128	149
4	1722	160.743321518708	150
4	1733	161.7736325014	151
4	1744	162.769186686842	152
4	1755	163.751711319182	153
4	1766	164.784781649038	154
4	1777	165.819807441278	155
4	1788	166.803674382693	156
4	1799	167.837974191429	157
4	1810	168.829396116934	158
4	1821	169.840885401216	159
4	1832	170.845024458492	160
4	1843	171.857643249969	161
4	1854	172.848816903759	162
4	1865	173.867348560997	163
4	1876	174.939428986941	164
4	1887	175.879704663848	165
4	1898	176.933405277843	166
4	1909	177.946689775838	167
4	1920	178.946459843196	168
4	1931	179.930168874279	169
4	1942	180.95329445185	170
4	1953	182.052421007438	171
4	1964	182.991979176707	172
4	1975	184.046729181815	173
4	1986	185.006326542358	174
4	1997	186.033165169099	175
4	2008	187.081714622723	176
4	2019	188.079335303812	177
4	2030	189.094617888858	178
4	2041	190.081263149626	179
4	2052	191.11311231895	180
4	2063	192.136497955993	181
4	2074	193.121293596246	182
4	2085	194.107624682668	183
4	2096	195.104888004767	184
4	2107	196.13613889126	185
4	2118	197.16599883149	186
4	2129	198.154322882827	187
4	2140	199.186802615824	188
5	10	0.1994486006	0
5	21	1.182919310048	1
5	32	2.212677921411	2
5	43	3.241085091291	3
5	54	4.215620083559	4
5	65	5.22459935427	5
5	76	6.238920299663	6
5	87	7.273122021254	7
5	98	8.262967564497	8
5	109	9.301219014196	9
5	120	10.272610295858	10
5	131	11.314130383479	11
5	142	12.329068506712	12
5	153	13.291077465588	13
5	164	14.293706110446	14
5	175	15.34252770775	15
5	193	17.346228607071	16
5	204	18.341631956089	17
5	215	19.360327448766	18
5	226	20.382587630557	19
5	237	21.353141313147	20
5	248	22.403203345144	21
5	259	23.380167546557	22
5	270	24.38004836691	23
5	281	25.410476915083	24
5	292	26.430172071893	25
5	303	27.427245140916	26
5	314	28.422629194396	27
5	325	29.428906756473	28
5	336	30.459122589464	29
5	347	31.428928579063	30
5	358	32.47300567611	31
5	369	33.511282068348	32
5	380	34.485971801713	33
5	391	35.474369185891	34
5	402	36.470486716837	35
5	413	37.545322174767	36
5	424	38.580261949066	37
5	435	39.573613642054	38
5	453	41.582013117077	39
5	464	42.587658566764	40
5	475	43.583745854576	41
5	486	44.586707793416	42
5	497	45.590372034849	43
5	508	46.618918092944	44
5	519	47.590266844934	45
5	539	49.644022659617	46
5	550	50.679327240299	47
5	561	51.664291359857	48
5	572	52.660360502787	49
5	583	53.709228997717	50
5	594	54.71685894355	51
5	605	55.741958708866	52
5	616	56.723133228031	53
5	627	57.749016624704	54
5	638	58.760702434482	55
5	649	59.750682285525	56
5	660	60.763191433185	57
5	671	61.77160395978	58
5	689	63.819090582046	59
5	700	64.816515532971	60
5	711	65.79805216362	61
5	722	66.814338199431	62
5	733	67.825308607122	63
5	744	68.839462283723	64
5	755	69.820082220889	65
5	766	70.859604662963	66
5	777	71.867025188298	67
5	788	72.847741735992	68
5	799	73.843048683518	69
5	810	74.905436137031	70
5	821	75.85834565856	71
5	832	76.843675524445	72
5	843	77.893592648809	73
5	854	78.908807407091	74
5	865	79.881595290304	75
5	876	80.883616390888	76
5	887	81.922956740532	77
5	898	82.973607892109	78
5	909	83.9114990536	79
5	920	84.947559451061	80
5	931	85.938093280947	81
5	942	86.939777810172	82
5	953	87.930250983594	83
5	964	89.006899787098	84
5	975	90.000741188404	85
5	986	91.027934214153	86
5	997	92.069531418698	87
5	1008	93.030564858702	88
5	1019	94.068021938784	89
5	1030	95.044860731639	90
5	1041	96.060915774683	91
5	1052	97.049051125136	92
5	1063	98.058454877551	93
5	1077	100.108160948212	94
5	1088	101.142441811196	95
5	1099	102.177392507479	96
5	1110	103.180247897477	97
5	1121	104.22871112669	98
5	1132	105.254320636241	99
5	1143	106.179587031799	100
5	1154	107.205674422654	101
5	1165	108.191226219836	102
5	1176	109.190728310692	103
5	1187	110.203758364185	104
5	1203	112.250670838203	105
5	1214	113.225343483193	106
5	1225	114.274269902026	107
5	1236	115.254004186624	108
5	1247	116.316052588949	109
5	1258	117.319434536943	110
5	1269	118.306542955698	111
5	1280	119.338189565661	112
5	1291	120.362627002171	113
5	1309	122.383697929446	114
5	1320	123.37965934439	115
5	1331	124.343739211061	116
5	1342	125.371065189463	117
5	1353	126.400064185032	118
5	1364	127.366868699434	119
5	1375	128.384199477856	120
5	1395	130.519789318163	121
5	1406	131.453173214885	122
5	1417	132.438958375922	123
5	1428	133.480163516967	124
5	1439	134.475654889196	125
5	1450	135.52127479281	126
5	1461	136.520119776578	127
5	1472	137.508789319165	128
5	1483	138.519540545944	129
5	1494	139.517658252602	130
5	1505	140.537048451197	131
5	1516	141.52948798306	132
5	1527	142.573576673099	133
5	1538	143.676146061199	134
5	1549	144.610896747439	135
5	1560	145.621952843413	136
5	1571	146.66677826975	137
5	1582	147.631814189603	138
5	1593	148.67095191429	139
5	1613	150.689106283063	140
5	1624	151.704267609631	141
5	1635	152.670375948704	142
5	1646	153.686928734501	143
5	1657	154.697235605486	144
5	1668	155.705710533775	145
5	1679	156.695048196337	146
5	1690	157.704131081091	147
5	1701	158.730963636868	148
5	1712	159.763224028128	149
5	1723	160.753321518708	150
5	1734	161.7836325014	151
5	1745	162.779186686842	152
5	1756	163.761711319182	153
5	1767	164.794781649038	154
5	1778	165.829807441278	155
5	1789	166.813674382693	156
5	1800	167.847974191429	157
5	1811	168.839396116934	158
5	1822	169.850885401216	159
5	1833	170.855024458492	160
5	1844	171.867643249969	161
5	1855	172.858816903759	162
5	1866	173.877348560997	163
5	1877	174.949428986941	164
5	1888	175.889704663848	165
5	1899	176.943405277843	166
5	1910	177.956689775838	167
5	1921	178.956459843196	168
5	1932	179.940168874279	169
5	1943	180.96329445185	170
5	1954	182.062421007438	171
5	1965	183.001979176707	172
5	1976	184.056729181815	173
5	1987	185.016326542358	174
5	1998	186.043165169099	175
5	2009	187.091714622723	176
5	2020	188.089335303812	177
5	2031	189.104617888858	178
5	2042	190.091263149626	179
5	2053	191.12311231895	180
5	2064	192.146497955993	181
5	2075	193.131293596246	182
5	2086	194.117624682668	183
5	2097	195.114888004767	184
5	2108	196.14613889126	185
5	2119	197.17599883149	186
5	2130	198.164322882827	187

