version 2
run General-1-20231004-20:10:54-11760
attr configname General
attr datetime 20231004-20:10:54
attr experiment General
attr inifile omnetpp.ini
attr iterationvars ""
attr iterationvarsf ""
attr measurement ""
attr network Reliability
attr processid 11760
attr repetition 1
attr replication #1
attr resultdir results
attr runnumber 1
attr seedset 1
param Reliability.node[*].transmissionTime "uniform(1s, 2s)"
param Reliability.node[*].delayTime "uniform(0.01s, 0.2s)"
param Reliability.node[*].processingTime exponential(0.01s)
param Reliability.node[*].lossProbability 0.2

vector 0 Reliability.node[0] txVector ETV
vector 1 Reliability.node[1] txVector ETV
vector 2 Reliability.node[3] txVector ETV
vector 3 Reliability.node[4] txVector ETV
vector 4 Reliability.node[5] rxVector ETV
0	1	0.089234179703	0
0	5	2.086418987836	1
0	9	3.214543435608	2
0	11	4.450632411872	3
0	13	5.847213138013	4
0	21	7.23512387823	5
0	29	8.548397391221	6
0	37	10.082811298432	7
0	39	12.021939093365	8
0	47	13.800328328858	9
0	53	15.318480877091	10
0	55	17.148084241782	11
0	57	18.421134219157	12
0	61	19.480377416244	13
0	69	21.073442933034	14
0	77	22.363072576817	15
0	85	23.397243886838	16
0	89	24.843378387509	17
0	97	25.916742561735	18
0	99	27.036233035499	19
0	101	28.561032418512	20
0	109	29.644655423822	21
0	111	31.229044547655	22
0	115	32.794956576197	23
0	121	34.751492234996	24
0	129	36.284940727871	25
0	137	38.050425835071	26
0	143	39.08022719517	27
0	145	40.528207378114	28
0	151	42.420343246661	29
0	159	44.072642124841	30
0	167	45.198957005633	31
0	175	46.962190062856	32
0	181	47.973859257182	33
0	189	49.760810731096	34
0	197	51.140614021221	35
0	205	52.913353164565	36
0	213	54.622395686923	37
0	221	55.891396736611	38
0	223	57.363871778014	39
0	229	59.106636605111	40
0	237	60.336999409252	41
0	239	61.855861284656	42
0	241	63.028139641627	43
0	243	64.424452929876	44
0	245	65.531818238205	45
0	253	67.041628516397	46
0	257	69.009296442034	47
0	265	70.242918969715	48
0	267	71.610762210214	49
0	275	73.423757181853	50
0	283	74.850667005522	51
0	285	76.21257145505	52
0	287	77.36590993905	53
0	289	79.303100264981	54
0	291	81.219510138152	55
0	299	83.001468600822	56
0	301	84.131238213624	57
0	309	85.425597685506	58
0	313	86.57773484278	59
0	321	88.516446540714	60
0	329	89.815126783564	61
0	331	91.574475582806	62
0	333	93.225596148172	63
0	341	94.265279650107	64
0	349	95.797106096406	65
0	357	97.012756371756	66
0	365	98.776997984272	67
0	367	99.93920349551	68
0	373	101.295667177416	69
0	381	103.226680105902	70
0	383	104.551197606256	71
0	391	106.27920924651	72
0	393	107.966267545359	73
0	401	109.393078389229	74
0	409	111.318278497202	75
0	417	112.612790043816	76
0	425	114.421128787916	77
0	427	115.775706021698	78
0	429	116.854225991178	79
0	433	118.547411189299	80
0	439	120.006956470083	81
0	441	121.479039895698	82
0	445	122.584431145923	83
0	453	124.470121006831	84
0	461	126.36640125548	85
0	469	127.796369152027	86
0	473	129.746412459179	87
0	481	131.6992435836	88
0	487	132.934511910309	89
0	493	134.125772180385	90
0	501	135.141645160154	91
0	509	137.009162614937	92
0	517	138.16691861127	93
0	525	139.866802641539	94
0	533	141.656202482874	95
0	541	143.123579787672	96
0	549	144.655247894232	97
0	553	146.076322650886	98
0	561	147.35022297583	99
0	569	149.285095173516	100
0	577	150.583895397489	101
0	585	151.667441744241	102
0	591	152.734473795048	103
0	595	154.507324225851	104
0	599	155.745535140973	105
0	607	157.026752032455	106
0	609	158.214130611973	107
0	617	159.736417180043	108
0	625	161.575196588761	109
0	627	162.793879492092	110
0	629	164.234707814059	111
0	637	165.714985997067	112
0	645	167.388133276138	113
0	647	168.707357068197	114
0	653	170.597874186584	115
0	661	171.798083181842	116
0	669	173.786147859529	117
0	671	175.501477442099	118
0	679	176.811805280274	119
0	687	177.812818560167	120
0	689	179.134270392242	121
0	697	180.181588621228	122
0	699	181.885923649068	123
0	707	183.471282862243	124
0	715	184.697744476027	125
0	723	186.313009409118	126
0	731	187.672569713207	127
0	739	188.875627556933	128
0	743	190.333778435249	129
0	745	191.867712768611	130
0	749	193.444992215258	131
0	757	194.759138740717	132
0	759	196.24671311339	133
0	767	198.088123175433	134
0	775	199.363969075145	135
0	777	200.564443836339	136
0	785	202.444296941046	137
0	787	203.933304241976	138
0	795	205.136978570489	139
0	803	206.924559577718	140
0	805	208.182362470893	141
0	813	209.746571216151	142
0	817	211.252297436936	143
0	821	212.709275344271	144
0	829	214.525282849675	145
0	837	216.261014967343	146
0	841	217.91733082675	147
0	843	219.652684521746	148
0	845	221.256179169171	149
0	847	222.936198315468	150
0	851	224.520158103785	151
0	853	225.881175574499	152
0	861	227.839875478416	153
0	869	229.822017839995	154
0	875	231.813468408889	155
0	879	233.467158164481	156
0	883	235.18624752469	157
0	887	236.795060613543	158
0	895	238.075745405048	159
0	897	239.791453338811	160
1	3	0.126198958082	0
1	7	2.165910130709	1
1	15	5.868292071471	2
1	23	7.252558775137	3
1	31	8.582927056023	4
1	41	12.044525865477	5
1	49	13.830354633629	6
1	59	18.442236859466	7
1	63	19.501514292522	8
1	71	21.084975845078	9
1	79	22.382855035633	10
1	87	23.409755775393	11
1	91	24.859712813088	12
1	103	28.595904872459	13
1	113	31.248562128907	14
1	117	32.807980865362	15
1	123	34.791437192098	16
1	131	36.295404788069	17
1	139	38.08189237834	18
1	147	40.542948849655	19
1	153	42.434825840615	20
1	161	44.0943605565	21
1	169	45.213365831045	22
1	177	46.979083787383	23
1	183	47.984521374538	24
1	191	49.78520431035	25
1	199	51.152273738556	26
1	207	52.929714045266	27
1	215	54.650215318392	28
1	225	57.37600316662	29
1	231	59.123734403253	30
1	247	65.542895596354	31
1	255	67.054890234876	32
1	259	69.020256667212	33
1	269	71.624183733617	34
1	277	73.447695326288	35
1	293	81.239089835306	36
1	303	84.145713823305	37
1	311	85.437360506174	38
1	315	86.592373211931	39
1	323	88.528732601705	40
1	335	93.252409589219	41
1	343	94.276437531093	42
1	351	95.831928442965	43
1	359	97.025148258832	44
1	369	99.950205100675	45
1	375	101.314261183877	46
1	385	104.568594474168	47
1	395	107.989307591037	48
1	403	109.405353800264	49
1	411	111.330105132465	50
1	419	112.627384667321	51
1	431	116.864353932815	52
1	435	118.589934806323	53
1	443	121.496033075704	54
1	447	122.602074943007	55
1	455	124.482884988409	56
1	463	126.380652147216	57
1	471	127.810132257121	58
1	475	129.758876494409	59
1	483	131.726122988104	60
1	489	132.953399637213	61
1	495	134.136282071845	62
1	503	135.167070536834	63
1	511	137.021513421102	64
1	519	138.1888756652	65
1	527	139.899881487356	66
1	535	141.670662482345	67
1	543	143.134974646734	68
1	551	144.676789817857	69
1	555	146.086423151491	70
1	563	147.375459799969	71
1	571	149.302876115808	72
1	579	150.594348219852	73
1	587	151.694142731253	74
1	593	152.756704744538	75
1	597	154.517778572244	76
1	601	155.775566587909	77
1	611	158.247552113952	78
1	619	159.747917040923	79
1	631	164.248761729748	80
1	639	165.725556562308	81
1	649	168.732981348272	82
1	655	170.61928229097	83
1	663	171.80964611716	84
1	673	175.516468722965	85
1	681	176.831603723791	86
1	691	179.157120946582	87
1	701	181.930845107184	88
1	709	183.492440484139	89
1	717	184.708211841024	90
1	725	186.331084493343	91
1	733	187.731943423284	92
1	741	188.907458530087	93
1	747	191.902662132052	94
1	751	193.467943540704	95
1	761	196.264821785157	96
1	769	198.100677137598	97
1	779	200.580713830326	98
1	789	203.944232154377	99
1	797	205.170371254928	100
1	807	208.193783057462	101
1	815	209.768426222597	102
1	819	211.266780245203	103
1	823	212.719744284847	104
1	831	214.559322047823	105
1	839	216.271128411569	106
1	849	222.954720236486	107
1	855	225.934559740748	108
1	863	227.858678755296	109
1	871	229.847136424365	110
1	877	231.823849872369	111
1	881	233.488809407274	112
1	885	235.197370383378	113
1	889	236.820031291932	114
2	17	5.905709031628	0
2	25	7.268418809782	1
2	33	8.599037288133	2
2	43	12.070759079069	3
2	51	13.858024145815	4
2	65	19.516820968983	5
2	73	21.110268926665	6
2	81	22.403661847533	7
2	93	24.870723977975	8
2	105	28.63003427304	9
2	119	32.820607708998	10
2	125	34.808230810335	11
2	133	36.306912623023	12
2	141	38.099674815532	13
2	149	40.560679950287	14
2	155	42.453289023801	15
2	163	44.11479468063	16
2	171	45.237340935321	17
2	179	46.989850351977	18
2	185	47.998911237151	19
2	193	49.809970659249	20
2	201	51.170916271584	21
2	209	52.9541784205	22
2	217	54.668229881865	23
2	227	57.392245191196	24
2	233	59.13607352031	25
2	249	65.556302457035	26
2	261	69.038697918218	27
2	271	71.646820664539	28
2	279	73.463278214092	29
2	295	81.249456469296	30
2	305	84.158924766305	31
2	317	86.60288633524	32
2	325	88.578772139978	33
2	337	93.276788545728	34
2	345	94.288016155367	35
2	353	95.848130245403	36
2	361	97.03591986053	37
2	371	99.961751343674	38
2	377	101.342564848773	39
2	387	104.591943320471	40
2	397	108.013427216532	41
2	405	109.415434149307	42
2	413	111.340349100687	43
2	421	112.64678043973	44
2	437	118.604002243883	45
2	449	122.615380515374	46
2	457	124.493126727833	47
2	465	126.39925757723	48
2	477	129.771735999466	49
2	485	131.743973359476	50
2	491	132.963892976685	51
2	497	134.151380587684	52
2	505	135.180010258267	53
2	513	137.036915670111	54
2	521	138.199652296118	55
2	529	139.909928229556	56
2	537	141.683409714799	57
2	545	143.153217665504	58
2	557	146.098906051104	59
2	565	147.392749491664	60
2	573	149.332528931358	61
2	581	150.610214636758	62
2	589	151.714256732444	63
2	603	155.786325935352	64
2	613	158.263998593824	65
2	621	159.765688951915	66
2	633	164.258851256103	67
2	641	165.737271323663	68
2	651	168.745433951855	69
2	657	170.630980888253	70
2	665	171.820141171485	71
2	675	175.527311061486	72
2	683	176.843838552452	73
2	693	179.181360991974	74
2	703	181.944467416795	75
2	711	183.517532892065	76
2	719	184.724119543236	77
2	727	186.346383803215	78
2	735	187.752708017103	79
2	753	193.494303199546	80
2	763	196.277967266591	81
2	771	198.121083040978	82
2	781	200.603622949293	83
2	791	203.956043652495	84
2	799	205.182849768959	85
2	809	208.208436604763	86
2	825	212.734651701301	87
2	833	214.572571118066	88
2	857	225.949455853679	89
2	865	227.879793664306	90
2	873	229.908923643203	91
2	891	236.852119171056	92
3	19	5.934437268297	0
3	27	7.281026968281	1
3	35	8.614670740446	2
3	45	12.08173301146	3
3	67	19.52902183743	4
3	75	21.12558837821	5
3	83	22.417207124307	6
3	95	24.904092655974	7
3	107	28.643585750017	8
3	127	34.82600916129	9
3	135	36.332634216711	10
3	157	42.473445618328	11
3	165	44.129163295575	12
3	173	45.268656019639	13
3	187	48.03735628683	14
3	195	49.823556863322	15
3	203	51.181006759712	16
3	211	52.970478129219	17
3	219	54.678956465119	18
3	235	59.146579132205	19
3	251	65.56893896798	20
3	263	69.054109504381	21
3	273	71.666312629153	22
3	281	73.478871064685	23
3	297	81.270078996277	24
3	307	84.169693241958	25
3	319	86.626393891622	26
3	327	88.611123387024	27
3	339	93.29286342485	28
3	347	94.305124965129	29
3	355	95.859548960722	30
3	363	97.046922697491	31
3	379	101.362327701089	32
3	389	104.603751420822	33
3	399	108.028495739759	34
3	407	109.451518557226	35
3	415	111.356363929925	36
3	423	112.657135133644	37
3	451	122.629759128098	38
3	459	124.536860644982	39
3	467	126.410610348194	40
3	479	129.80167244044	41
3	499	134.169982148585	42
3	507	135.190868614315	43
3	515	137.051188024063	44
3	523	138.210023809578	45
3	531	139.922996243825	46
3	539	141.693644128242	47
3	547	143.165054860424	48
3	559	146.109230830749	49
3	567	147.40291548948	50
3	575	149.344576005601	51
3	583	150.620409714731	52
3	605	155.807123798395	53
3	615	158.292773223889	54
3	623	159.781982891251	55
3	635	164.275892608001	56
3	643	165.756562632719	57
3	659	170.648121757051	58
3	667	171.853073857725	59
3	677	175.541651579578	60
3	685	176.86364982115	61
3	695	179.196574875795	62
3	705	181.958232628074	63
3	713	183.534720859474	64
3	721	184.768543692006	65
3	729	186.390211455316	66
3	737	187.779266880437	67
3	755	193.510843674421	68
3	765	196.294637046837	69
3	773	198.156483038287	70
3	783	200.61723080196	71
3	793	203.973035235255	72
3	801	205.206248876742	73
3	811	208.219301506745	74
3	827	212.750786251473	75
3	835	214.599595886191	76
3	859	225.977545724175	77
3	867	227.890695718606	78
3	893	236.869264908171	79
4	20	5.944437268297	0
4	46	12.09173301146	1
4	68	19.53902183743	2
4	84	22.427207124307	3
4	96	24.914092655974	4
4	108	28.653585750017	5
4	136	36.342634216711	6
4	158	42.483445618328	7
4	166	44.139163295575	8
4	174	45.278656019639	9
4	188	48.04735628683	10
4	204	51.191006759712	11
4	236	59.156579132205	12
4	252	65.57893896798	13
4	264	69.064109504381	14
4	274	71.676312629153	15
4	308	84.179693241958	16
4	320	86.636393891622	17
4	340	93.30286342485	18
4	348	94.315124965129	19
4	364	97.056922697491	20
4	380	101.372327701089	21
4	390	104.613751420822	22
4	400	108.038495739759	23
4	408	109.461518557226	24
4	416	111.366363929925	25
4	452	122.639759128098	26
4	460	124.546860644982	27
4	468	126.420610348194	28
4	480	129.81167244044	29
4	508	135.200868614315	30
4	516	137.061188024063	31
4	524	138.220023809578	32
4	532	139.932996243825	33
4	540	141.703644128242	34
4	548	143.175054860424	35
4	560	146.119230830749	36
4	568	147.41291548948	37
4	576	149.354576005601	38
4	584	150.630409714731	39
4	606	155.817123798395	40
4	616	158.302773223889	41
4	624	159.791982891251	42
4	636	164.285892608001	43
4	644	165.766562632719	44
4	668	171.863073857725	45
4	678	175.551651579578	46
4	686	176.87364982115	47
4	696	179.206574875795	48
4	706	181.968232628074	49
4	714	183.544720859474	50
4	730	186.400211455316	51
4	756	193.520843674421	52
4	766	196.304637046837	53
4	774	198.166483038287	54
4	784	200.62723080196	55
4	794	203.983035235255	56
4	802	205.216248876742	57
4	812	208.229301506745	58
4	828	212.760786251473	59
4	836	214.609595886191	60
4	860	225.987545724175	61
4	868	227.900695718606	62
4	894	236.879264908171	63

