version 2
run General-0-20230926-18:59:45-4665
attr configname General
attr datetime 20230926-18:59:45
attr experiment General
attr inifile omnetpp.ini
attr iterationvars ""
attr iterationvarsf ""
attr measurement ""
attr network Multihop
attr processid 4665
attr repetition 0
attr replication #0
attr resultdir results
attr runnumber 0
attr seedset 0
param Multihop.node[*].delayTime exponential(0.1s)

vector 0 Multihop.node[0] txVector ETV
vector 1 Multihop.node[1] txVector ETV
vector 2 Multihop.node[2] txVector ETV
vector 3 Multihop.node[3] txVector ETV
vector 4 Multihop.node[4] txVector ETV
vector 5 Multihop.node[5] rxVector ETV
0	1	0.079587450457	1
0	7	1.079587450457	2
0	13	2.079587450457	3
0	19	3.079587450457	4
0	25	4.079587450457	5
0	31	5.079587450457	6
0	37	6.079587450457	7
0	43	7.079587450457	8
0	49	8.079587450457	9
0	55	9.079587450457	10
0	61	10.079587450457	11
0	67	11.079587450457	12
0	73	12.079587450457	13
0	79	13.079587450457	14
0	85	14.079587450457	15
0	91	15.079587450457	16
0	97	16.079587450457	17
0	103	17.079587450457	18
0	109	18.079587450457	19
0	115	19.079587450457	20
0	121	20.079587450457	21
0	127	21.079587450457	22
0	133	22.079587450457	23
0	139	23.079587450457	24
0	145	24.079587450457	25
0	151	25.079587450457	26
0	157	26.079587450457	27
0	163	27.079587450457	28
0	169	28.079587450457	29
0	175	29.079587450457	30
0	181	30.079587450457	31
0	187	31.079587450457	32
0	193	32.079587450457	33
0	199	33.079587450457	34
0	205	34.079587450457	35
0	211	35.079587450457	36
0	217	36.079587450457	37
0	223	37.079587450457	38
0	229	38.079587450457	39
0	235	39.079587450457	40
0	241	40.079587450457	41
0	247	41.079587450457	42
0	253	42.079587450457	43
0	259	43.079587450457	44
0	265	44.079587450457	45
0	271	45.079587450457	46
0	277	46.079587450457	47
0	283	47.079587450457	48
0	289	48.079587450457	49
0	295	49.079587450457	50
0	301	50.079587450457	51
0	307	51.079587450457	52
0	313	52.079587450457	53
0	319	53.079587450457	54
0	325	54.079587450457	55
0	331	55.079587450457	56
0	337	56.079587450457	57
0	343	57.079587450457	58
0	349	58.079587450457	59
0	355	59.079587450457	60
0	361	60.079587450457	61
0	367	61.079587450457	62
0	373	62.079587450457	63
0	379	63.079587450457	64
0	385	64.079587450457	65
0	391	65.079587450457	66
0	397	66.079587450457	67
0	403	67.079587450457	68
0	409	68.079587450457	69
0	415	69.079587450457	70
0	421	70.079587450457	71
0	427	71.079587450457	72
0	433	72.079587450457	73
0	439	73.079587450457	74
0	445	74.079587450457	75
0	451	75.079587450457	76
0	457	76.079587450457	77
0	463	77.079587450457	78
0	469	78.079587450457	79
0	475	79.079587450457	80
0	481	80.079587450457	81
0	487	81.079587450457	82
0	493	82.079587450457	83
0	499	83.079587450457	84
0	505	84.079587450457	85
0	511	85.079587450457	86
0	517	86.079587450457	87
0	523	87.079587450457	88
0	529	88.079587450457	89
0	535	89.079587450457	90
0	541	90.079587450457	91
0	547	91.079587450457	92
0	553	92.079587450457	93
0	559	93.079587450457	94
0	565	94.079587450457	95
0	571	95.079587450457	96
0	577	96.079587450457	97
0	583	97.079587450457	98
0	589	98.079587450457	99
0	595	99.079587450457	100
0	601	100.079587450457	101
0	607	101.079587450457	102
0	613	102.079587450457	103
0	619	103.079587450457	104
0	625	104.079587450457	105
0	631	105.079587450457	106
0	637	106.079587450457	107
0	643	107.079587450457	108
0	649	108.079587450457	109
0	655	109.079587450457	110
0	661	110.079587450457	111
0	667	111.079587450457	112
0	673	112.079587450457	113
0	679	113.079587450457	114
0	685	114.079587450457	115
0	691	115.079587450457	116
0	697	116.079587450457	117
0	703	117.079587450457	118
0	709	118.079587450457	119
0	715	119.079587450457	120
0	721	120.079587450457	121
0	727	121.079587450457	122
0	733	122.079587450457	123
0	739	123.079587450457	124
0	745	124.079587450457	125
0	751	125.079587450457	126
0	757	126.079587450457	127
0	763	127.079587450457	128
0	769	128.079587450457	129
0	775	129.079587450457	130
0	781	130.079587450457	131
0	787	131.079587450457	132
0	793	132.079587450457	133
0	799	133.079587450457	134
0	805	134.079587450457	135
0	811	135.079587450457	136
0	817	136.079587450457	137
0	823	137.079587450457	138
0	829	138.079587450457	139
0	835	139.079587450457	140
0	841	140.079587450457	141
0	847	141.079587450457	142
0	853	142.079587450457	143
0	859	143.079587450457	144
0	865	144.079587450457	145
0	871	145.079587450457	146
0	877	146.079587450457	147
0	883	147.079587450457	148
0	889	148.079587450457	149
0	895	149.079587450457	150
0	901	150.079587450457	151
0	907	151.079587450457	152
0	913	152.079587450457	153
0	919	153.079587450457	154
0	925	154.079587450457	155
0	931	155.079587450457	156
0	937	156.079587450457	157
0	943	157.079587450457	158
0	949	158.079587450457	159
0	955	159.079587450457	160
0	961	160.079587450457	161
0	967	161.079587450457	162
0	973	162.079587450457	163
0	979	163.079587450457	164
0	985	164.079587450457	165
0	991	165.079587450457	166
0	997	166.079587450457	167
0	1003	167.079587450457	168
0	1009	168.079587450457	169
0	1015	169.079587450457	170
0	1021	170.079587450457	171
0	1027	171.079587450457	172
0	1033	172.079587450457	173
0	1039	173.079587450457	174
0	1045	174.079587450457	175
0	1051	175.079587450457	176
0	1057	176.079587450457	177
0	1063	177.079587450457	178
0	1069	178.079587450457	179
0	1075	179.079587450457	180
0	1081	180.079587450457	181
0	1087	181.079587450457	182
0	1093	182.079587450457	183
0	1099	183.079587450457	184
0	1105	184.079587450457	185
0	1111	185.079587450457	186
0	1117	186.079587450457	187
0	1123	187.079587450457	188
0	1129	188.079587450457	189
0	1135	189.079587450457	190
0	1141	190.079587450457	191
0	1147	191.079587450457	192
0	1153	192.079587450457	193
0	1159	193.079587450457	194
0	1165	194.079587450457	195
0	1171	195.079587450457	196
0	1177	196.079587450457	197
0	1183	197.079587450457	198
0	1189	198.079587450457	199
0	1195	199.079587450457	200
1	2	0.179587450457	1
1	8	1.179587450457	2
1	14	2.179587450457	3
1	20	3.179587450457	4
1	26	4.179587450457	5
1	32	5.179587450457	6
1	38	6.179587450457	7
1	44	7.179587450457	8
1	50	8.179587450457	9
1	56	9.179587450457	10
1	62	10.179587450457	11
1	68	11.179587450457	12
1	74	12.179587450457	13
1	80	13.179587450457	14
1	86	14.179587450457	15
1	92	15.179587450457	16
1	98	16.179587450457	17
1	104	17.179587450457	18
1	110	18.179587450457	19
1	116	19.179587450457	20
1	122	20.179587450457	21
1	128	21.179587450457	22
1	134	22.179587450457	23
1	140	23.179587450457	24
1	146	24.179587450457	25
1	152	25.179587450457	26
1	158	26.179587450457	27
1	164	27.179587450457	28
1	170	28.179587450457	29
1	176	29.179587450457	30
1	182	30.179587450457	31
1	188	31.179587450457	32
1	194	32.179587450457	33
1	200	33.179587450457	34
1	206	34.179587450457	35
1	212	35.179587450457	36
1	218	36.179587450457	37
1	224	37.179587450457	38
1	230	38.179587450457	39
1	236	39.179587450457	40
1	242	40.179587450457	41
1	248	41.179587450457	42
1	254	42.179587450457	43
1	260	43.179587450457	44
1	266	44.179587450457	45
1	272	45.179587450457	46
1	278	46.179587450457	47
1	284	47.179587450457	48
1	290	48.179587450457	49
1	296	49.179587450457	50
1	302	50.179587450457	51
1	308	51.179587450457	52
1	314	52.179587450457	53
1	320	53.179587450457	54
1	326	54.179587450457	55
1	332	55.179587450457	56
1	338	56.179587450457	57
1	344	57.179587450457	58
1	350	58.179587450457	59
1	356	59.179587450457	60
1	362	60.179587450457	61
1	368	61.179587450457	62
1	374	62.179587450457	63
1	380	63.179587450457	64
1	386	64.179587450457	65
1	392	65.179587450457	66
1	398	66.179587450457	67
1	404	67.179587450457	68
1	410	68.179587450457	69
1	416	69.179587450457	70
1	422	70.179587450457	71
1	428	71.179587450457	72
1	434	72.179587450457	73
1	440	73.179587450457	74
1	446	74.179587450457	75
1	452	75.179587450457	76
1	458	76.179587450457	77
1	464	77.179587450457	78
1	470	78.179587450457	79
1	476	79.179587450457	80
1	482	80.179587450457	81
1	488	81.179587450457	82
1	494	82.179587450457	83
1	500	83.179587450457	84
1	506	84.179587450457	85
1	512	85.179587450457	86
1	518	86.179587450457	87
1	524	87.179587450457	88
1	530	88.179587450457	89
1	536	89.179587450457	90
1	542	90.179587450457	91
1	548	91.179587450457	92
1	554	92.179587450457	93
1	560	93.179587450457	94
1	566	94.179587450457	95
1	572	95.179587450457	96
1	578	96.179587450457	97
1	584	97.179587450457	98
1	590	98.179587450457	99
1	596	99.179587450457	100
1	602	100.179587450457	101
1	608	101.179587450457	102
1	614	102.179587450457	103
1	620	103.179587450457	104
1	626	104.179587450457	105
1	632	105.179587450457	106
1	638	106.179587450457	107
1	644	107.179587450457	108
1	650	108.179587450457	109
1	656	109.179587450457	110
1	662	110.179587450457	111
1	668	111.179587450457	112
1	674	112.179587450457	113
1	680	113.179587450457	114
1	686	114.179587450457	115
1	692	115.179587450457	116
1	698	116.179587450457	117
1	704	117.179587450457	118
1	710	118.179587450457	119
1	716	119.179587450457	120
1	722	120.179587450457	121
1	728	121.179587450457	122
1	734	122.179587450457	123
1	740	123.179587450457	124
1	746	124.179587450457	125
1	752	125.179587450457	126
1	758	126.179587450457	127
1	764	127.179587450457	128
1	770	128.179587450457	129
1	776	129.179587450457	130
1	782	130.179587450457	131
1	788	131.179587450457	132
1	794	132.179587450457	133
1	800	133.179587450457	134
1	806	134.179587450457	135
1	812	135.179587450457	136
1	818	136.179587450457	137
1	824	137.179587450457	138
1	830	138.179587450457	139
1	836	139.179587450457	140
1	842	140.179587450457	141
1	848	141.179587450457	142
1	854	142.179587450457	143
1	860	143.179587450457	144
1	866	144.179587450457	145
1	872	145.179587450457	146
1	878	146.179587450457	147
1	884	147.179587450457	148
1	890	148.179587450457	149
1	896	149.179587450457	150
1	902	150.179587450457	151
1	908	151.179587450457	152
1	914	152.179587450457	153
1	920	153.179587450457	154
1	926	154.179587450457	155
1	932	155.179587450457	156
1	938	156.179587450457	157
1	944	157.179587450457	158
1	950	158.179587450457	159
1	956	159.179587450457	160
1	962	160.179587450457	161
1	968	161.179587450457	162
1	974	162.179587450457	163
1	980	163.179587450457	164
1	986	164.179587450457	165
1	992	165.179587450457	166
1	998	166.179587450457	167
1	1004	167.179587450457	168
1	1010	168.179587450457	169
1	1016	169.179587450457	170
1	1022	170.179587450457	171
1	1028	171.179587450457	172
1	1034	172.179587450457	173
1	1040	173.179587450457	174
1	1046	174.179587450457	175
1	1052	175.179587450457	176
1	1058	176.179587450457	177
1	1064	177.179587450457	178
1	1070	178.179587450457	179
1	1076	179.179587450457	180
1	1082	180.179587450457	181
1	1088	181.179587450457	182
1	1094	182.179587450457	183
1	1100	183.179587450457	184
1	1106	184.179587450457	185
1	1112	185.179587450457	186
1	1118	186.179587450457	187
1	1124	187.179587450457	188
1	1130	188.179587450457	189
1	1136	189.179587450457	190
1	1142	190.179587450457	191
1	1148	191.179587450457	192
1	1154	192.179587450457	193
1	1160	193.179587450457	194
1	1166	194.179587450457	195
1	1172	195.179587450457	196
1	1178	196.179587450457	197
1	1184	197.179587450457	198
1	1190	198.179587450457	199
1	1196	199.179587450457	200
2	3	0.279587450457	1
2	9	1.279587450457	2
2	15	2.279587450457	3
2	21	3.279587450457	4
2	27	4.279587450457	5
2	33	5.279587450457	6
2	39	6.279587450457	7
2	45	7.279587450457	8
2	51	8.279587450457	9
2	57	9.279587450457	10
2	63	10.279587450457	11
2	69	11.279587450457	12
2	75	12.279587450457	13
2	81	13.279587450457	14
2	87	14.279587450457	15
2	93	15.279587450457	16
2	99	16.279587450457	17
2	105	17.279587450457	18
2	111	18.279587450457	19
2	117	19.279587450457	20
2	123	20.279587450457	21
2	129	21.279587450457	22
2	135	22.279587450457	23
2	141	23.279587450457	24
2	147	24.279587450457	25
2	153	25.279587450457	26
2	159	26.279587450457	27
2	165	27.279587450457	28
2	171	28.279587450457	29
2	177	29.279587450457	30
2	183	30.279587450457	31
2	189	31.279587450457	32
2	195	32.279587450457	33
2	201	33.279587450457	34
2	207	34.279587450457	35
2	213	35.279587450457	36
2	219	36.279587450457	37
2	225	37.279587450457	38
2	231	38.279587450457	39
2	237	39.279587450457	40
2	243	40.279587450457	41
2	249	41.279587450457	42
2	255	42.279587450457	43
2	261	43.279587450457	44
2	267	44.279587450457	45
2	273	45.279587450457	46
2	279	46.279587450457	47
2	285	47.279587450457	48
2	291	48.279587450457	49
2	297	49.279587450457	50
2	303	50.279587450457	51
2	309	51.279587450457	52
2	315	52.279587450457	53
2	321	53.279587450457	54
2	327	54.279587450457	55
2	333	55.279587450457	56
2	339	56.279587450457	57
2	345	57.279587450457	58
2	351	58.279587450457	59
2	357	59.279587450457	60
2	363	60.279587450457	61
2	369	61.279587450457	62
2	375	62.279587450457	63
2	381	63.279587450457	64
2	387	64.279587450457	65
2	393	65.279587450457	66
2	399	66.279587450457	67
2	405	67.279587450457	68
2	411	68.279587450457	69
2	417	69.279587450457	70
2	423	70.279587450457	71
2	429	71.279587450457	72
2	435	72.279587450457	73
2	441	73.279587450457	74
2	447	74.279587450457	75
2	453	75.279587450457	76
2	459	76.279587450457	77
2	465	77.279587450457	78
2	471	78.279587450457	79
2	477	79.279587450457	80
2	483	80.279587450457	81
2	489	81.279587450457	82
2	495	82.279587450457	83
2	501	83.279587450457	84
2	507	84.279587450457	85
2	513	85.279587450457	86
2	519	86.279587450457	87
2	525	87.279587450457	88
2	531	88.279587450457	89
2	537	89.279587450457	90
2	543	90.279587450457	91
2	549	91.279587450457	92
2	555	92.279587450457	93
2	561	93.279587450457	94
2	567	94.279587450457	95
2	573	95.279587450457	96
2	579	96.279587450457	97
2	585	97.279587450457	98
2	591	98.279587450457	99
2	597	99.279587450457	100
2	603	100.279587450457	101
2	609	101.279587450457	102
2	615	102.279587450457	103
2	621	103.279587450457	104
2	627	104.279587450457	105
2	633	105.279587450457	106
2	639	106.279587450457	107
2	645	107.279587450457	108
2	651	108.279587450457	109
2	657	109.279587450457	110
2	663	110.279587450457	111
2	669	111.279587450457	112
2	675	112.279587450457	113
2	681	113.279587450457	114
2	687	114.279587450457	115
2	693	115.279587450457	116
2	699	116.279587450457	117
2	705	117.279587450457	118
2	711	118.279587450457	119
2	717	119.279587450457	120
2	723	120.279587450457	121
2	729	121.279587450457	122
2	735	122.279587450457	123
2	741	123.279587450457	124
2	747	124.279587450457	125
2	753	125.279587450457	126
2	759	126.279587450457	127
2	765	127.279587450457	128
2	771	128.279587450457	129
2	777	129.279587450457	130
2	783	130.279587450457	131
2	789	131.279587450457	132
2	795	132.279587450457	133
2	801	133.279587450457	134
2	807	134.279587450457	135
2	813	135.279587450457	136
2	819	136.279587450457	137
2	825	137.279587450457	138
2	831	138.279587450457	139
2	837	139.279587450457	140
2	843	140.279587450457	141
2	849	141.279587450457	142
2	855	142.279587450457	143
2	861	143.279587450457	144
2	867	144.279587450457	145
2	873	145.279587450457	146
2	879	146.279587450457	147
2	885	147.279587450457	148
2	891	148.279587450457	149
2	897	149.279587450457	150
2	903	150.279587450457	151
2	909	151.279587450457	152
2	915	152.279587450457	153
2	921	153.279587450457	154
2	927	154.279587450457	155
2	933	155.279587450457	156
2	939	156.279587450457	157
2	945	157.279587450457	158
2	951	158.279587450457	159
2	957	159.279587450457	160
2	963	160.279587450457	161
2	969	161.279587450457	162
2	975	162.279587450457	163
2	981	163.279587450457	164
2	987	164.279587450457	165
2	993	165.279587450457	166
2	999	166.279587450457	167
2	1005	167.279587450457	168
2	1011	168.279587450457	169
2	1017	169.279587450457	170
2	1023	170.279587450457	171
2	1029	171.279587450457	172
2	1035	172.279587450457	173
2	1041	173.279587450457	174
2	1047	174.279587450457	175
2	1053	175.279587450457	176
2	1059	176.279587450457	177
2	1065	177.279587450457	178
2	1071	178.279587450457	179
2	1077	179.279587450457	180
2	1083	180.279587450457	181
2	1089	181.279587450457	182
2	1095	182.279587450457	183
2	1101	183.279587450457	184
2	1107	184.279587450457	185
2	1113	185.279587450457	186
2	1119	186.279587450457	187
2	1125	187.279587450457	188
2	1131	188.279587450457	189
2	1137	189.279587450457	190
2	1143	190.279587450457	191
2	1149	191.279587450457	192
2	1155	192.279587450457	193
2	1161	193.279587450457	194
2	1167	194.279587450457	195
2	1173	195.279587450457	196
2	1179	196.279587450457	197
2	1185	197.279587450457	198
2	1191	198.279587450457	199
2	1197	199.279587450457	200
3	4	0.379587450457	1
3	10	1.379587450457	2
3	16	2.379587450457	3
3	22	3.379587450457	4
3	28	4.379587450457	5
3	34	5.379587450457	6
3	40	6.379587450457	7
3	46	7.379587450457	8
3	52	8.379587450457	9
3	58	9.379587450457	10
3	64	10.379587450457	11
3	70	11.379587450457	12
3	76	12.379587450457	13
3	82	13.379587450457	14
3	88	14.379587450457	15
3	94	15.379587450457	16
3	100	16.379587450457	17
3	106	17.379587450457	18
3	112	18.379587450457	19
3	118	19.379587450457	20
3	124	20.379587450457	21
3	130	21.379587450457	22
3	136	22.379587450457	23
3	142	23.379587450457	24
3	148	24.379587450457	25
3	154	25.379587450457	26
3	160	26.379587450457	27
3	166	27.379587450457	28
3	172	28.379587450457	29
3	178	29.379587450457	30
3	184	30.379587450457	31
3	190	31.379587450457	32
3	196	32.379587450457	33
3	202	33.379587450457	34
3	208	34.379587450457	35
3	214	35.379587450457	36
3	220	36.379587450457	37
3	226	37.379587450457	38
3	232	38.379587450457	39
3	238	39.379587450457	40
3	244	40.379587450457	41
3	250	41.379587450457	42
3	256	42.379587450457	43
3	262	43.379587450457	44
3	268	44.379587450457	45
3	274	45.379587450457	46
3	280	46.379587450457	47
3	286	47.379587450457	48
3	292	48.379587450457	49
3	298	49.379587450457	50
3	304	50.379587450457	51
3	310	51.379587450457	52
3	316	52.379587450457	53
3	322	53.379587450457	54
3	328	54.379587450457	55
3	334	55.379587450457	56
3	340	56.379587450457	57
3	346	57.379587450457	58
3	352	58.379587450457	59
3	358	59.379587450457	60
3	364	60.379587450457	61
3	370	61.379587450457	62
3	376	62.379587450457	63
3	382	63.379587450457	64
3	388	64.379587450457	65
3	394	65.379587450457	66
3	400	66.379587450457	67
3	406	67.379587450457	68
3	412	68.379587450457	69
3	418	69.379587450457	70
3	424	70.379587450457	71
3	430	71.379587450457	72
3	436	72.379587450457	73
3	442	73.379587450457	74
3	448	74.379587450457	75
3	454	75.379587450457	76
3	460	76.379587450457	77
3	466	77.379587450457	78
3	472	78.379587450457	79
3	478	79.379587450457	80
3	484	80.379587450457	81
3	490	81.379587450457	82
3	496	82.379587450457	83
3	502	83.379587450457	84
3	508	84.379587450457	85
3	514	85.379587450457	86
3	520	86.379587450457	87
3	526	87.379587450457	88
3	532	88.379587450457	89
3	538	89.379587450457	90
3	544	90.379587450457	91
3	550	91.379587450457	92
3	556	92.379587450457	93
3	562	93.379587450457	94
3	568	94.379587450457	95
3	574	95.379587450457	96
3	580	96.379587450457	97
3	586	97.379587450457	98
3	592	98.379587450457	99
3	598	99.379587450457	100
3	604	100.379587450457	101
3	610	101.379587450457	102
3	616	102.379587450457	103
3	622	103.379587450457	104
3	628	104.379587450457	105
3	634	105.379587450457	106
3	640	106.379587450457	107
3	646	107.379587450457	108
3	652	108.379587450457	109
3	658	109.379587450457	110
3	664	110.379587450457	111
3	670	111.379587450457	112
3	676	112.379587450457	113
3	682	113.379587450457	114
3	688	114.379587450457	115
3	694	115.379587450457	116
3	700	116.379587450457	117
3	706	117.379587450457	118
3	712	118.379587450457	119
3	718	119.379587450457	120
3	724	120.379587450457	121
3	730	121.379587450457	122
3	736	122.379587450457	123
3	742	123.379587450457	124
3	748	124.379587450457	125
3	754	125.379587450457	126
3	760	126.379587450457	127
3	766	127.379587450457	128
3	772	128.379587450457	129
3	778	129.379587450457	130
3	784	130.379587450457	131
3	790	131.379587450457	132
3	796	132.379587450457	133
3	802	133.379587450457	134
3	808	134.379587450457	135
3	814	135.379587450457	136
3	820	136.379587450457	137
3	826	137.379587450457	138
3	832	138.379587450457	139
3	838	139.379587450457	140
3	844	140.379587450457	141
3	850	141.379587450457	142
3	856	142.379587450457	143
3	862	143.379587450457	144
3	868	144.379587450457	145
3	874	145.379587450457	146
3	880	146.379587450457	147
3	886	147.379587450457	148
3	892	148.379587450457	149
3	898	149.379587450457	150
3	904	150.379587450457	151
3	910	151.379587450457	152
3	916	152.379587450457	153
3	922	153.379587450457	154
3	928	154.379587450457	155
3	934	155.379587450457	156
3	940	156.379587450457	157
3	946	157.379587450457	158
3	952	158.379587450457	159
3	958	159.379587450457	160
3	964	160.379587450457	161
3	970	161.379587450457	162
3	976	162.379587450457	163
3	982	163.379587450457	164
3	988	164.379587450457	165
3	994	165.379587450457	166
3	1000	166.379587450457	167
3	1006	167.379587450457	168
3	1012	168.379587450457	169
3	1018	169.379587450457	170
3	1024	170.379587450457	171
3	1030	171.379587450457	172
3	1036	172.379587450457	173
3	1042	173.379587450457	174
3	1048	174.379587450457	175
3	1054	175.379587450457	176
3	1060	176.379587450457	177
3	1066	177.379587450457	178
3	1072	178.379587450457	179
3	1078	179.379587450457	180
3	1084	180.379587450457	181
3	1090	181.379587450457	182
3	1096	182.379587450457	183
3	1102	183.379587450457	184
3	1108	184.379587450457	185
3	1114	185.379587450457	186
3	1120	186.379587450457	187
3	1126	187.379587450457	188
3	1132	188.379587450457	189
3	1138	189.379587450457	190
3	1144	190.379587450457	191
3	1150	191.379587450457	192
3	1156	192.379587450457	193
3	1162	193.379587450457	194
3	1168	194.379587450457	195
3	1174	195.379587450457	196
3	1180	196.379587450457	197
3	1186	197.379587450457	198
3	1192	198.379587450457	199
3	1198	199.379587450457	200
4	5	0.479587450457	1
4	11	1.479587450457	2
4	17	2.479587450457	3
4	23	3.479587450457	4
4	29	4.479587450457	5
4	35	5.479587450457	6
4	41	6.479587450457	7
4	47	7.479587450457	8
4	53	8.479587450457	9
4	59	9.479587450457	10
4	65	10.479587450457	11
4	71	11.479587450457	12
4	77	12.479587450457	13
4	83	13.479587450457	14
4	89	14.479587450457	15
4	95	15.479587450457	16
4	101	16.479587450457	17
4	107	17.479587450457	18
4	113	18.479587450457	19
4	119	19.479587450457	20
4	125	20.479587450457	21
4	131	21.479587450457	22
4	137	22.479587450457	23
4	143	23.479587450457	24
4	149	24.479587450457	25
4	155	25.479587450457	26
4	161	26.479587450457	27
4	167	27.479587450457	28
4	173	28.479587450457	29
4	179	29.479587450457	30
4	185	30.479587450457	31
4	191	31.479587450457	32
4	197	32.479587450457	33
4	203	33.479587450457	34
4	209	34.479587450457	35
4	215	35.479587450457	36
4	221	36.479587450457	37
4	227	37.479587450457	38
4	233	38.479587450457	39
4	239	39.479587450457	40
4	245	40.479587450457	41
4	251	41.479587450457	42
4	257	42.479587450457	43
4	263	43.479587450457	44
4	269	44.479587450457	45
4	275	45.479587450457	46
4	281	46.479587450457	47
4	287	47.479587450457	48
4	293	48.479587450457	49
4	299	49.479587450457	50
4	305	50.479587450457	51
4	311	51.479587450457	52
4	317	52.479587450457	53
4	323	53.479587450457	54
4	329	54.479587450457	55
4	335	55.479587450457	56
4	341	56.479587450457	57
4	347	57.479587450457	58
4	353	58.479587450457	59
4	359	59.479587450457	60
4	365	60.479587450457	61
4	371	61.479587450457	62
4	377	62.479587450457	63
4	383	63.479587450457	64
4	389	64.479587450457	65
4	395	65.479587450457	66
4	401	66.479587450457	67
4	407	67.479587450457	68
4	413	68.479587450457	69
4	419	69.479587450457	70
4	425	70.479587450457	71
4	431	71.479587450457	72
4	437	72.479587450457	73
4	443	73.479587450457	74
4	449	74.479587450457	75
4	455	75.479587450457	76
4	461	76.479587450457	77
4	467	77.479587450457	78
4	473	78.479587450457	79
4	479	79.479587450457	80
4	485	80.479587450457	81
4	491	81.479587450457	82
4	497	82.479587450457	83
4	503	83.479587450457	84
4	509	84.479587450457	85
4	515	85.479587450457	86
4	521	86.479587450457	87
4	527	87.479587450457	88
4	533	88.479587450457	89
4	539	89.479587450457	90
4	545	90.479587450457	91
4	551	91.479587450457	92
4	557	92.479587450457	93
4	563	93.479587450457	94
4	569	94.479587450457	95
4	575	95.479587450457	96
4	581	96.479587450457	97
4	587	97.479587450457	98
4	593	98.479587450457	99
4	599	99.479587450457	100
4	605	100.479587450457	101
4	611	101.479587450457	102
4	617	102.479587450457	103
4	623	103.479587450457	104
4	629	104.479587450457	105
4	635	105.479587450457	106
4	641	106.479587450457	107
4	647	107.479587450457	108
4	653	108.479587450457	109
4	659	109.479587450457	110
4	665	110.479587450457	111
4	671	111.479587450457	112
4	677	112.479587450457	113
4	683	113.479587450457	114
4	689	114.479587450457	115
4	695	115.479587450457	116
4	701	116.479587450457	117
4	707	117.479587450457	118
4	713	118.479587450457	119
4	719	119.479587450457	120
4	725	120.479587450457	121
4	731	121.479587450457	122
4	737	122.479587450457	123
4	743	123.479587450457	124
4	749	124.479587450457	125
4	755	125.479587450457	126
4	761	126.479587450457	127
4	767	127.479587450457	128
4	773	128.479587450457	129
4	779	129.479587450457	130
4	785	130.479587450457	131
4	791	131.479587450457	132
4	797	132.479587450457	133
4	803	133.479587450457	134
4	809	134.479587450457	135
4	815	135.479587450457	136
4	821	136.479587450457	137
4	827	137.479587450457	138
4	833	138.479587450457	139
4	839	139.479587450457	140
4	845	140.479587450457	141
4	851	141.479587450457	142
4	857	142.479587450457	143
4	863	143.479587450457	144
4	869	144.479587450457	145
4	875	145.479587450457	146
4	881	146.479587450457	147
4	887	147.479587450457	148
4	893	148.479587450457	149
4	899	149.479587450457	150
4	905	150.479587450457	151
4	911	151.479587450457	152
4	917	152.479587450457	153
4	923	153.479587450457	154
4	929	154.479587450457	155
4	935	155.479587450457	156
4	941	156.479587450457	157
4	947	157.479587450457	158
4	953	158.479587450457	159
4	959	159.479587450457	160
4	965	160.479587450457	161
4	971	161.479587450457	162
4	977	162.479587450457	163
4	983	163.479587450457	164
4	989	164.479587450457	165
4	995	165.479587450457	166
4	1001	166.479587450457	167
4	1007	167.479587450457	168
4	1013	168.479587450457	169
4	1019	169.479587450457	170
4	1025	170.479587450457	171
4	1031	171.479587450457	172
4	1037	172.479587450457	173
4	1043	173.479587450457	174
4	1049	174.479587450457	175
4	1055	175.479587450457	176
4	1061	176.479587450457	177
4	1067	177.479587450457	178
4	1073	178.479587450457	179
4	1079	179.479587450457	180
4	1085	180.479587450457	181
4	1091	181.479587450457	182
4	1097	182.479587450457	183
4	1103	183.479587450457	184
4	1109	184.479587450457	185
4	1115	185.479587450457	186
4	1121	186.479587450457	187
4	1127	187.479587450457	188
4	1133	188.479587450457	189
4	1139	189.479587450457	190
4	1145	190.479587450457	191
4	1151	191.479587450457	192
4	1157	192.479587450457	193
4	1163	193.479587450457	194
4	1169	194.479587450457	195
4	1175	195.479587450457	196
4	1181	196.479587450457	197
4	1187	197.479587450457	198
4	1193	198.479587450457	199
4	1199	199.479587450457	200
5	6	0.579587450457	1
5	12	1.579587450457	2
5	18	2.579587450457	3
5	24	3.579587450457	4
5	30	4.579587450457	5
5	36	5.579587450457	6
5	42	6.579587450457	7
5	48	7.579587450457	8
5	54	8.579587450457	9
5	60	9.579587450457	10
5	66	10.579587450457	11
5	72	11.579587450457	12
5	78	12.579587450457	13
5	84	13.579587450457	14
5	90	14.579587450457	15
5	96	15.579587450457	16
5	102	16.579587450457	17
5	108	17.579587450457	18
5	114	18.579587450457	19
5	120	19.579587450457	20
5	126	20.579587450457	21
5	132	21.579587450457	22
5	138	22.579587450457	23
5	144	23.579587450457	24
5	150	24.579587450457	25
5	156	25.579587450457	26
5	162	26.579587450457	27
5	168	27.579587450457	28
5	174	28.579587450457	29
5	180	29.579587450457	30
5	186	30.579587450457	31
5	192	31.579587450457	32
5	198	32.579587450457	33
5	204	33.579587450457	34
5	210	34.579587450457	35
5	216	35.579587450457	36
5	222	36.579587450457	37
5	228	37.579587450457	38
5	234	38.579587450457	39
5	240	39.579587450457	40
5	246	40.579587450457	41
5	252	41.579587450457	42
5	258	42.579587450457	43
5	264	43.579587450457	44
5	270	44.579587450457	45
5	276	45.579587450457	46
5	282	46.579587450457	47
5	288	47.579587450457	48
5	294	48.579587450457	49
5	300	49.579587450457	50
5	306	50.579587450457	51
5	312	51.579587450457	52
5	318	52.579587450457	53
5	324	53.579587450457	54
5	330	54.579587450457	55
5	336	55.579587450457	56
5	342	56.579587450457	57
5	348	57.579587450457	58
5	354	58.579587450457	59
5	360	59.579587450457	60
5	366	60.579587450457	61
5	372	61.579587450457	62
5	378	62.579587450457	63
5	384	63.579587450457	64
5	390	64.579587450457	65
5	396	65.579587450457	66
5	402	66.579587450457	67
5	408	67.579587450457	68
5	414	68.579587450457	69
5	420	69.579587450457	70
5	426	70.579587450457	71
5	432	71.579587450457	72
5	438	72.579587450457	73
5	444	73.579587450457	74
5	450	74.579587450457	75
5	456	75.579587450457	76
5	462	76.579587450457	77
5	468	77.579587450457	78
5	474	78.579587450457	79
5	480	79.579587450457	80
5	486	80.579587450457	81
5	492	81.579587450457	82
5	498	82.579587450457	83
5	504	83.579587450457	84
5	510	84.579587450457	85
5	516	85.579587450457	86
5	522	86.579587450457	87
5	528	87.579587450457	88
5	534	88.579587450457	89
5	540	89.579587450457	90
5	546	90.579587450457	91
5	552	91.579587450457	92
5	558	92.579587450457	93
5	564	93.579587450457	94
5	570	94.579587450457	95
5	576	95.579587450457	96
5	582	96.579587450457	97
5	588	97.579587450457	98
5	594	98.579587450457	99
5	600	99.579587450457	100
5	606	100.579587450457	101
5	612	101.579587450457	102
5	618	102.579587450457	103
5	624	103.579587450457	104
5	630	104.579587450457	105
5	636	105.579587450457	106
5	642	106.579587450457	107
5	648	107.579587450457	108
5	654	108.579587450457	109
5	660	109.579587450457	110
5	666	110.579587450457	111
5	672	111.579587450457	112
5	678	112.579587450457	113
5	684	113.579587450457	114
5	690	114.579587450457	115
5	696	115.579587450457	116
5	702	116.579587450457	117
5	708	117.579587450457	118
5	714	118.579587450457	119
5	720	119.579587450457	120
5	726	120.579587450457	121
5	732	121.579587450457	122
5	738	122.579587450457	123
5	744	123.579587450457	124
5	750	124.579587450457	125
5	756	125.579587450457	126
5	762	126.579587450457	127
5	768	127.579587450457	128
5	774	128.579587450457	129
5	780	129.579587450457	130
5	786	130.579587450457	131
5	792	131.579587450457	132
5	798	132.579587450457	133
5	804	133.579587450457	134
5	810	134.579587450457	135
5	816	135.579587450457	136
5	822	136.579587450457	137
5	828	137.579587450457	138
5	834	138.579587450457	139
5	840	139.579587450457	140
5	846	140.579587450457	141
5	852	141.579587450457	142
5	858	142.579587450457	143
5	864	143.579587450457	144
5	870	144.579587450457	145
5	876	145.579587450457	146
5	882	146.579587450457	147
5	888	147.579587450457	148
5	894	148.579587450457	149
5	900	149.579587450457	150
5	906	150.579587450457	151
5	912	151.579587450457	152
5	918	152.579587450457	153
5	924	153.579587450457	154
5	930	154.579587450457	155
5	936	155.579587450457	156
5	942	156.579587450457	157
5	948	157.579587450457	158
5	954	158.579587450457	159
5	960	159.579587450457	160
5	966	160.579587450457	161
5	972	161.579587450457	162
5	978	162.579587450457	163
5	984	163.579587450457	164
5	990	164.579587450457	165
5	996	165.579587450457	166
5	1002	166.579587450457	167
5	1008	167.579587450457	168
5	1014	168.579587450457	169
5	1020	169.579587450457	170
5	1026	170.579587450457	171
5	1032	171.579587450457	172
5	1038	172.579587450457	173
5	1044	173.579587450457	174
5	1050	174.579587450457	175
5	1056	175.579587450457	176
5	1062	176.579587450457	177
5	1068	177.579587450457	178
5	1074	178.579587450457	179
5	1080	179.579587450457	180
5	1086	180.579587450457	181
5	1092	181.579587450457	182
5	1098	182.579587450457	183
5	1104	183.579587450457	184
5	1110	184.579587450457	185
5	1116	185.579587450457	186
5	1122	186.579587450457	187
5	1128	187.579587450457	188
5	1134	188.579587450457	189
5	1140	189.579587450457	190
5	1146	190.579587450457	191
5	1152	191.579587450457	192
5	1158	192.579587450457	193
5	1164	193.579587450457	194
5	1170	194.579587450457	195
5	1176	195.579587450457	196
5	1182	196.579587450457	197
5	1188	197.579587450457	198
5	1194	198.579587450457	199
5	1200	199.579587450457	200

