version 2
run General-3-20231008-01:39:27-9598
attr configname General
attr datetime 20231008-01:39:27
attr experiment General
attr inifile omnetpp.ini
attr iterationvars ""
attr iterationvarsf ""
attr measurement ""
attr network Reliability
attr processid 9598
attr repetition 3
attr replication #3
attr resultdir results
attr runnumber 3
attr seedset 3
param Reliability.node[*].transmissionTime "uniform(1s, 2s)"
param Reliability.node[*].delayTime "uniform(0.01s, 0.2s)"
param Reliability.node[*].processingTime exponential(0.01s)
param Reliability.node[*].lossProbability 0.0

vector 0 Reliability.node[0] txVector ETV
vector 1 Reliability.node[1] txVector ETV
vector 2 Reliability.node[2] txVector ETV
vector 3 Reliability.node[4] txVector ETV
vector 4 Reliability.node[5] rxVector ETV
vector 5 Reliability.node[3] txVector ETV
0	1	0.114651601831	0
0	9	1.185376482154	1
0	17	2.310961798136	2
0	25	3.764134097681	3
0	33	5.322988182841	4
0	41	6.597908290405	5
0	49	7.985879547497	6
0	57	9.384870503632	7
0	65	10.609925006352	8
0	73	12.263555858818	9
0	81	13.46896619892	10
0	89	14.831306657589	11
0	97	16.499441462637	12
0	105	17.801705076194	13
0	113	19.525644212796	14
0	121	20.701706328031	15
0	129	22.653807573088	16
0	137	24.473588301868	17
0	145	26.133914204382	18
0	153	27.96193632141	19
0	161	29.505530651261	20
0	169	31.392428778645	21
0	177	33.032605401773	22
0	185	34.284346912356	23
0	193	35.719867464455	24
0	201	37.544198858852	25
0	209	38.884887342642	26
0	217	39.96645838518	27
0	225	41.105925512103	28
0	233	42.809665212243	29
0	241	44.637528016533	30
0	249	46.3351936809	31
0	257	47.649846675175	32
0	265	49.4436089467	33
0	273	50.786702805266	34
0	281	52.009079124846	35
0	289	53.511830172569	36
0	297	55.395894841126	37
0	305	56.579667157096	38
0	313	58.03397893796	39
0	321	59.257301915738	40
0	329	60.534069832017	41
0	337	61.925027848988	42
0	345	63.718350527178	43
0	353	64.993902988567	44
0	361	66.320166993954	45
0	369	67.614860486773	46
0	377	69.232205112999	47
0	385	71.099158803535	48
0	393	72.43949127856	49
0	401	73.691421579638	50
0	409	75.407337279127	51
0	417	77.3080481522	52
0	425	79.282991745577	53
0	433	80.456216751666	54
0	441	81.499722845222	55
0	449	83.076697740306	56
0	457	84.25569818944	57
0	465	85.393508082324	58
0	473	86.650550679372	59
0	481	88.203307935105	60
0	489	89.213164759402	61
0	497	90.252526207662	62
0	505	91.785405042882	63
0	513	93.76856683085	64
0	521	94.854810448431	65
0	529	96.247282362611	66
0	537	98.098395356976	67
0	545	99.493147231007	68
0	553	100.918501684044	69
0	561	102.070964944849	70
0	569	103.448314418618	71
0	577	105.167804923907	72
0	585	106.931224857058	73
0	593	108.676590700235	74
0	601	110.389861951416	75
0	609	112.012174591489	76
0	617	113.711103981893	77
0	625	114.739398053448	78
0	633	116.008628824094	79
0	641	117.628877334363	80
0	649	119.583025366134	81
0	657	120.597740150589	82
0	665	121.894335570579	83
0	673	123.71738078545	84
0	681	125.576412856646	85
0	689	127.066473737426	86
0	697	128.335732854271	87
0	705	129.464141930986	88
0	713	131.180423210442	89
0	721	133.024370701352	90
0	729	134.278835858052	91
0	737	135.811157400553	92
0	745	137.650108768904	93
0	753	139.550154793841	94
0	761	141.259748386984	95
0	769	142.953432853633	96
0	777	144.110174108363	97
0	785	145.384829110765	98
0	793	146.791551800977	99
0	801	148.469676851827	100
0	809	150.073826333341	101
0	817	151.518827125729	102
0	825	152.540429839698	103
0	833	153.802682142771	104
0	841	155.777121004249	105
0	849	157.580325520896	106
0	857	158.99684357347	107
0	865	160.441311138748	108
0	873	161.891681229994	109
0	881	163.142773765903	110
0	889	164.856709186519	111
0	897	166.042144126557	112
0	905	167.110432455149	113
0	913	168.434825455603	114
0	921	169.58773605276	115
0	929	170.733757297575	116
0	937	172.099512646274	117
0	945	173.225054430376	118
0	953	174.421140490632	119
0	961	176.4122129244	120
0	969	177.527511568108	121
0	977	178.683445994343	122
0	985	180.034949360715	123
0	993	181.598543745998	124
0	1001	183.56309469633	125
0	1009	185.026048950452	126
0	1017	186.447402996311	127
0	1025	187.839688200804	128
0	1033	189.422864555682	129
0	1041	190.932248622945	130
0	1049	192.404778470353	131
0	1057	194.089564433389	132
0	1065	195.361563225577	133
0	1073	196.527736257596	134
0	1081	198.08298287105	135
0	1089	199.590493510544	136
0	1097	201.099669616503	137
0	1105	202.63739313285	138
0	1113	204.196434105813	139
0	1121	206.055327144751	140
0	1129	207.902036286259	141
0	1137	209.533665727891	142
0	1145	211.303215920294	143
0	1153	212.641230036339	144
0	1161	213.814439400632	145
0	1169	215.541139925199	146
0	1177	216.932791206122	147
0	1185	218.228316298288	148
0	1193	219.621633179786	149
0	1201	220.973498292102	150
0	1209	222.233249449471	151
0	1217	223.580572114859	152
0	1225	225.44155963843	153
0	1233	226.954924058237	154
0	1241	228.14591044986	155
0	1249	229.949147617513	156
0	1257	230.96015228757	157
0	1265	232.441949939191	158
0	1273	233.986264998627	159
0	1281	235.211019082994	160
0	1289	236.525619632632	161
0	1297	238.105276309487	162
0	1305	239.800659511772	163
1	3	0.14297423212	0
1	11	1.197698865979	1
1	19	2.323389866927	2
1	27	3.777135051614	3
1	35	5.3390506833	4
1	43	6.635457138533	5
1	51	8.001408211832	6
1	59	9.400088019874	7
1	67	10.630792424555	8
1	75	12.275804543127	9
1	83	13.48622485778	10
1	91	14.84545951932	11
1	99	16.525893288474	12
1	107	17.818150334245	13
1	115	19.582001732112	14
1	123	20.723151166309	15
1	131	22.672277196302	16
1	139	24.508119505607	17
1	147	26.146575915515	18
1	155	27.972877130311	19
1	163	29.522527441734	20
1	171	31.403975830649	21
1	179	33.06540747816	22
1	187	34.295074044202	23
1	195	35.793539956722	24
1	203	37.5548674517	25
1	211	38.898564466518	26
1	219	39.980224525189	27
1	227	41.127285010751	28
1	235	42.853254683155	29
1	243	44.647786610159	30
1	251	46.34846892916	31
1	259	47.664642026212	32
1	267	49.48327605142	33
1	275	50.801114956517	34
1	283	52.036740105066	35
1	291	53.525484840163	36
1	299	55.411628184731	37
1	307	56.594744409964	38
1	315	58.04676257002	39
1	323	59.268090055918	40
1	331	60.544543853455	41
1	339	61.945087363404	42
1	347	63.729920457181	43
1	355	65.01267200843	44
1	363	66.374489881987	45
1	371	67.676927037321	46
1	379	69.253475125354	47
1	387	71.111281869513	48
1	395	72.47292664887	49
1	403	73.716982648769	50
1	411	75.428387232684	51
1	419	77.354199026363	52
1	427	79.300623924158	53
1	435	80.469398624264	54
1	443	81.52023943109	55
1	451	83.098712581534	56
1	459	84.26571946767	57
1	467	85.412856289241	58
1	475	86.670327689775	59
1	483	88.214175199908	60
1	491	89.236895425523	61
1	499	90.270261222408	62
1	507	91.824520299416	63
1	515	93.782762662845	64
1	523	94.933290600456	65
1	531	96.278830996638	66
1	539	98.108620184395	67
1	547	99.50870834246	68
1	555	100.952068391182	69
1	563	102.090590709761	70
1	571	103.464866995698	71
1	579	105.184173874158	72
1	587	106.954317217995	73
1	595	108.700884468354	74
1	603	110.411391633176	75
1	611	112.036520459969	76
1	619	113.734627053806	77
1	627	114.753166843486	78
1	635	116.024565054131	79
1	643	117.651408044474	80
1	651	119.609400979872	81
1	659	120.617839504848	82
1	667	121.90930656451	83
1	675	123.738308896488	84
1	683	125.606513192038	85
1	691	127.108880918431	86
1	699	128.352876007508	87
1	707	129.480228710603	88
1	715	131.213727836831	89
1	723	133.044704608073	90
1	731	134.314874049305	91
1	739	135.834603548831	92
1	747	137.661821938892	93
1	755	139.571242096917	94
1	763	141.28412857702	95
1	771	142.966735256355	96
1	779	144.125175297282	97
1	787	145.396641344895	98
1	795	146.808243922283	99
1	803	148.47975331836	100
1	811	150.086689054365	101
1	819	151.531396441586	102
1	827	152.571220559118	103
1	835	153.81415878212	104
1	843	155.792262160345	105
1	851	157.592755058054	106
1	859	159.013850742331	107
1	867	160.469310037933	108
1	875	161.904397029028	109
1	883	163.155633854541	110
1	891	164.87978398947	111
1	899	166.06551575279	112
1	907	167.132300108462	113
1	915	168.451802429733	114
1	923	169.60324973481	115
1	931	170.75596534442	116
1	939	172.1148995814	117
1	947	173.245145779055	118
1	955	174.44507904294	119
1	963	176.432686342744	120
1	971	177.547774804396	121
1	979	178.703178507551	122
1	987	180.05095371681	123
1	995	181.617026929891	124
1	1003	183.589921463387	125
1	1011	185.036111647961	126
1	1019	186.459464547925	127
1	1027	187.850561006941	128
1	1035	189.437229542392	129
1	1043	190.952680745536	130
1	1051	192.423190791725	131
1	1059	194.114965851661	132
1	1067	195.381260198568	133
1	1075	196.544741061272	134
1	1083	198.117278386725	135
1	1091	199.609784194798	136
1	1099	201.123229399326	137
1	1107	202.65594042517	138
1	1115	204.207580347397	139
1	1123	206.077911420702	140
1	1131	207.921449885326	141
1	1139	209.545686810473	142
1	1147	211.3300616232	143
1	1155	212.653890281938	144
1	1163	213.860062093581	145
1	1171	215.553442975521	146
1	1179	216.943485736435	147
1	1187	218.271108635673	148
1	1195	219.650332769451	149
1	1203	221.005214757678	150
1	1211	222.275545129204	151
1	1219	223.647343738422	152
1	1227	225.458550936018	153
1	1235	226.983242170884	154
1	1243	228.160715705122	155
1	1251	229.971627995283	156
1	1259	230.995748076861	157
1	1267	232.454286014912	158
1	1275	234.00975857447	159
1	1283	235.224004045388	160
1	1291	236.55870502056	161
1	1299	238.119058739518	162
1	1307	239.836392483179	163
2	5	0.160124635094	0
2	29	3.795181917936	1
2	45	6.646997014309	2
2	53	8.022004365288	3
2	69	10.644126025447	4
2	85	13.507972005441	5
2	93	14.872953882441	6
2	101	16.538514526096	7
2	117	19.593386239562	8
2	125	20.73763986155	9
2	157	27.984768935361	10
2	165	29.534478025621	11
2	173	31.417094864593	12
2	221	39.993934605999	13
2	229	41.141868971065	14
2	237	42.86662766673	15
2	245	44.660219428235	16
2	261	47.677266540376	17
2	277	50.818387879323	18
2	317	58.056890945431	19
2	325	59.293947493665	20
2	333	60.568162970395	21
2	341	61.95815703889	22
2	365	66.385815572931	23
2	381	69.276041095881	24
2	429	79.329090805841	25
2	437	80.519961884818	26
2	445	81.534117618875	27
2	453	83.109650140366	28
2	461	84.280971922661	29
2	469	85.445062156311	30
2	477	86.687081967014	31
2	485	88.224678204404	32
2	501	90.280782369056	33
2	509	91.85672331828	34
2	517	93.800418236046	35
2	541	98.118998625328	36
2	565	102.113174365195	37
2	573	103.479568025891	38
2	589	106.972200670098	39
2	605	110.430470440264	40
2	653	119.639499281508	41
2	685	125.622523704274	42
2	693	127.122783065071	43
2	701	128.384274846359	44
2	717	131.242359111705	45
2	733	134.339804547364	46
2	741	135.865707390145	47
2	749	137.684937168848	48
2	757	139.582499566819	49
2	765	141.307363938969	50
2	773	142.99527693705	51
2	781	144.15573493765	52
2	789	145.412352092585	53
2	805	148.494471228686	54
2	813	150.107794640748	55
2	829	152.583924055429	56
2	837	153.840005729136	57
2	853	157.60556512237	58
2	869	160.491279577028	59
2	877	161.934758218877	60
2	893	164.901728473059	61
2	917	168.466196527567	62
2	933	170.76868973652	63
2	941	172.125564247817	64
2	949	173.260917643104	65
2	957	174.459732985497	66
2	965	176.44273162886	67
2	973	177.558199130387	68
2	981	178.721436047237	69
2	989	180.06995365112	70
2	997	181.627536959729	71
2	1013	185.046792253581	72
2	1037	189.459159444233	73
2	1045	190.973280790575	74
2	1053	192.467198143539	75
2	1061	194.140282213968	76
2	1069	195.399113507829	77
2	1077	196.560083781083	78
2	1093	199.629315969239	79
2	1101	201.133561775789	80
2	1109	202.674052968609	81
2	1141	209.566398903806	82
2	1149	211.343869921923	83
2	1173	215.576103887488	84
2	1181	216.959949920635	85
2	1197	219.666512344283	86
2	1221	223.660828126596	87
2	1229	225.473493547872	88
2	1245	228.185184223342	89
2	1253	229.98218911575	90
2	1261	231.012645166828	91
2	1277	234.027753174787	92
2	1285	235.236463196428	93
3	7	0.175870491842	0
3	15	1.21898439255	1
3	23	2.37912103656	2
3	31	3.816995486752	3
3	39	5.37718475109	4
3	47	6.680310369089	5
3	55	8.044506827839	6
3	63	9.437327716582	7
3	71	10.658812067187	8
3	79	12.320804098954	9
3	87	13.521774139768	10
3	95	14.888844367983	11
3	103	16.555100936395	12
3	111	17.841222522599	13
3	119	19.604621672143	14
3	127	20.750703573466	15
3	135	22.70312775531	16
3	143	24.539500473574	17
3	151	26.196475016044	18
3	159	28.010262632182	19
3	167	29.553885030906	20
3	175	31.429444158789	21
3	183	33.1425315788	22
3	191	34.348578561533	23
3	199	35.822917028209	24
3	207	37.602179360254	25
3	215	38.932549765527	26
3	223	40.005603894819	27
3	231	41.153608305323	28
3	239	42.880011103303	29
3	247	44.686316674127	30
3	255	46.375335854376	31
3	263	47.69304693225	32
3	271	49.509019575155	33
3	279	50.834868312859	34
3	287	52.073619925161	35
3	295	53.551732512248	36
3	303	55.45090703673	37
3	311	56.626920532365	38
3	319	58.067198747894	39
3	327	59.30944011668	40
3	335	60.587251237989	41
3	343	61.97880302974	42
3	351	63.774036658785	43
3	359	65.051647057048	44
3	367	66.409122027317	45
3	375	67.704034146664	46
3	383	69.292209783715	47
3	391	71.152343617785	48
3	399	72.507544973016	49
3	407	73.76850385304	50
3	415	75.473939619881	51
3	423	77.402486185051	52
3	431	79.348481984893	53
3	439	80.570593117748	54
3	447	81.564409258533	55
3	455	83.153681196985	56
3	463	84.298233678917	57
3	471	85.464884015203	58
3	479	86.711763725701	59
3	487	88.244856743047	60
3	495	89.269781061061	61
3	503	90.299965260879	62
3	511	91.868009326186	63
3	519	93.841528404396	64
3	527	94.977439730704	65
3	535	96.315700742038	66
3	543	98.138244381465	67
3	551	99.54970233303	68
3	559	100.975805397646	69
3	567	102.123624299697	70
3	575	103.496313374548	71
3	583	105.221964222601	72
3	591	107.002876361246	73
3	599	108.754289238723	74
3	607	110.446547965162	75
3	615	112.068524711453	76
3	623	113.756939966156	77
3	631	114.824448753385	78
3	639	116.092064054837	79
3	647	117.713796148882	80
3	655	119.655102121399	81
3	663	120.654537654112	82
3	671	121.949948209881	83
3	679	123.762746214553	84
3	687	125.634925587461	85
3	695	127.156807289548	86
3	703	128.398158552718	87
3	711	129.508468408022	88
3	719	131.272621322288	89
3	727	133.07125126437	90
3	735	134.362773869971	91
3	743	135.887016883229	92
3	751	137.696867091314	93
3	759	139.620543727183	94
3	767	141.318976857104	95
3	775	143.015771492055	96
3	783	144.179533411131	97
3	791	145.425497134822	98
3	799	146.831826548301	99
3	807	148.510757305831	100
3	815	150.123992088586	101
3	823	151.563864885383	102
3	831	152.600286595039	103
3	839	153.859848749623	104
3	847	155.822457345234	105
3	855	157.622957047408	106
3	863	159.051414367147	107
3	871	160.50362583121	108
3	879	161.980772577444	109
3	887	163.186022281486	110
3	895	164.925217646167	111
3	903	166.097348044163	112
3	911	167.16479482752	113
3	919	168.485922552312	114
3	927	169.643857540792	115
3	935	170.781277220375	116
3	943	172.15493287326	117
3	951	173.284869607758	118
3	959	174.471768426041	119
3	967	176.465030053486	120
3	975	177.569007169	121
3	983	178.746713602574	122
3	991	180.080329894162	123
3	999	181.642301460789	124
3	1007	183.617105686611	125
3	1015	185.075395938721	126
3	1023	186.48947372373	127
3	1031	187.877466606579	128
3	1039	189.477788071204	129
3	1047	190.989557530022	130
3	1055	192.491938561402	131
3	1063	194.151213675371	132
3	1071	195.4126114538	133
3	1079	196.576727190389	134
3	1087	198.171124601209	135
3	1095	199.681383119056	136
3	1103	201.173571576346	137
3	1111	202.692136514852	138
3	1119	204.260044108392	139
3	1127	206.111513441375	140
3	1135	207.978648503369	141
3	1143	209.585202689611	142
3	1151	211.354958094681	143
3	1159	212.680861615925	144
3	1167	213.927944920308	145
3	1175	215.590535841429	146
3	1183	216.972810832899	147
3	1191	218.314863854432	148
3	1199	219.690656848772	149
3	1207	221.041975777644	150
3	1215	222.329726099032	151
3	1223	223.681129207301	152
3	1231	225.484479017682	153
3	1239	227.015028154997	154
3	1247	228.196619510596	155
3	1255	229.993422129105	156
3	1263	231.040294904652	157
3	1271	232.496444663261	158
3	1279	234.041139438746	159
3	1287	235.255735953179	160
3	1295	236.605955001682	161
3	1303	238.19629043132	162
3	1311	239.885507762542	163
4	8	0.185870491842	0
4	16	1.22898439255	1
4	24	2.38912103656	2
4	32	3.826995486752	3
4	40	5.38718475109	4
4	48	6.690310369089	5
4	56	8.054506827839	6
4	64	9.447327716582	7
4	72	10.668812067187	8
4	80	12.330804098954	9
4	88	13.531774139768	10
4	96	14.898844367983	11
4	104	16.565100936395	12
4	112	17.851222522599	13
4	120	19.614621672143	14
4	128	20.760703573466	15
4	136	22.71312775531	16
4	144	24.549500473574	17
4	152	26.206475016044	18
4	160	28.020262632182	19
4	168	29.563885030906	20
4	176	31.439444158789	21
4	184	33.1525315788	22
4	192	34.358578561533	23
4	200	35.832917028209	24
4	208	37.612179360254	25
4	216	38.942549765527	26
4	224	40.015603894819	27
4	232	41.163608305323	28
4	240	42.890011103303	29
4	248	44.696316674127	30
4	256	46.385335854376	31
4	264	47.70304693225	32
4	272	49.519019575155	33
4	280	50.844868312859	34
4	288	52.083619925161	35
4	296	53.561732512248	36
4	304	55.46090703673	37
4	312	56.636920532365	38
4	320	58.077198747894	39
4	328	59.31944011668	40
4	336	60.597251237989	41
4	344	61.98880302974	42
4	352	63.784036658785	43
4	360	65.061647057048	44
4	368	66.419122027317	45
4	376	67.714034146664	46
4	384	69.302209783715	47
4	392	71.162343617785	48
4	400	72.517544973016	49
4	408	73.77850385304	50
4	416	75.483939619881	51
4	424	77.412486185051	52
4	432	79.358481984893	53
4	440	80.580593117748	54
4	448	81.574409258533	55
4	456	83.163681196985	56
4	464	84.308233678917	57
4	472	85.474884015203	58
4	480	86.721763725701	59
4	488	88.254856743047	60
4	496	89.279781061061	61
4	504	90.309965260879	62
4	512	91.878009326186	63
4	520	93.851528404396	64
4	528	94.987439730704	65
4	536	96.325700742038	66
4	544	98.148244381465	67
4	552	99.55970233303	68
4	560	100.985805397646	69
4	568	102.133624299697	70
4	576	103.506313374548	71
4	584	105.231964222601	72
4	592	107.012876361246	73
4	600	108.764289238723	74
4	608	110.456547965162	75
4	616	112.078524711453	76
4	624	113.766939966156	77
4	632	114.834448753385	78
4	640	116.102064054837	79
4	648	117.723796148882	80
4	656	119.665102121399	81
4	664	120.664537654112	82
4	672	121.959948209881	83
4	680	123.772746214553	84
4	688	125.644925587461	85
4	696	127.166807289548	86
4	704	128.408158552718	87
4	712	129.518468408022	88
4	720	131.282621322288	89
4	728	133.08125126437	90
4	736	134.372773869971	91
4	744	135.897016883229	92
4	752	137.706867091314	93
4	760	139.630543727183	94
4	768	141.328976857104	95
4	776	143.025771492055	96
4	784	144.189533411131	97
4	792	145.435497134822	98
4	800	146.841826548301	99
4	808	148.520757305831	100
4	816	150.133992088586	101
4	824	151.573864885383	102
4	832	152.610286595039	103
4	840	153.869848749623	104
4	848	155.832457345234	105
4	856	157.632957047408	106
4	864	159.061414367147	107
4	872	160.51362583121	108
4	880	161.990772577444	109
4	888	163.196022281486	110
4	896	164.935217646167	111
4	904	166.107348044163	112
4	912	167.17479482752	113
4	920	168.495922552312	114
4	928	169.653857540792	115
4	936	170.791277220375	116
4	944	172.16493287326	117
4	952	173.294869607758	118
4	960	174.481768426041	119
4	968	176.475030053486	120
4	976	177.579007169	121
4	984	178.756713602574	122
4	992	180.090329894162	123
4	1000	181.652301460789	124
4	1008	183.627105686611	125
4	1016	185.085395938721	126
4	1024	186.49947372373	127
4	1032	187.887466606579	128
4	1040	189.487788071204	129
4	1048	190.999557530022	130
4	1056	192.501938561402	131
4	1064	194.161213675371	132
4	1072	195.4226114538	133
4	1080	196.586727190389	134
4	1088	198.181124601209	135
4	1096	199.691383119056	136
4	1104	201.183571576346	137
4	1112	202.702136514852	138
4	1120	204.270044108392	139
4	1128	206.121513441375	140
4	1136	207.988648503369	141
4	1144	209.595202689611	142
4	1152	211.364958094681	143
4	1160	212.690861615925	144
4	1168	213.937944920308	145
4	1176	215.600535841429	146
4	1184	216.982810832899	147
4	1192	218.324863854432	148
4	1200	219.700656848772	149
4	1208	221.051975777644	150
4	1216	222.339726099032	151
4	1224	223.691129207301	152
4	1232	225.494479017682	153
4	1240	227.025028154997	154
4	1248	228.206619510596	155
4	1256	230.003422129105	156
4	1264	231.050294904652	157
4	1272	232.506444663261	158
4	1280	234.051139438746	159
4	1288	235.265735953179	160
4	1296	236.615955001682	161
4	1304	238.20629043132	162
4	1312	239.895507762542	163
5	13	1.208681076553	0
5	21	2.344667855045	1
5	37	5.364206278231	2
5	61	9.42387753123	3
5	77	12.304195642897	4
5	109	17.830469227787	5
5	133	22.688821076516	6
5	141	24.521451983223	7
5	149	26.171944144239	8
5	181	33.078620287434	9
5	189	34.306462739026	10
5	197	35.806555671898	11
5	205	37.578666906069	12
5	213	38.921552873316	13
5	253	46.364331385909	14
5	269	49.498553927007	15
5	285	52.062976891898	16
5	293	53.536280644683	17
5	301	55.431217695726	18
5	309	56.607967262102	19
5	349	63.754579622049	20
5	357	65.025502741753	21
5	373	67.688820719563	22
5	389	71.1417993197	23
5	397	72.484996287819	24
5	405	73.733925438001	25
5	413	75.461060279639	26
5	421	77.372590059011	27
5	493	89.251777464763	28
5	525	94.965252410663	29
5	533	96.291101353531	30
5	549	99.522161906072	31
5	557	100.962348658306	32
5	581	105.200992575652	33
5	597	108.736761624058	34
5	613	112.057501006257	35
5	621	113.746310056235	36
5	629	114.782368083918	37
5	637	116.044168555545	38
5	645	117.69515055744	39
5	661	120.643196540582	40
5	669	121.920327526509	41
5	677	123.749213814104	42
5	709	129.492025659817	43
5	725	133.055534215572	44
5	797	146.819340354526	45
5	821	151.549667252357	46
5	845	155.812444111167	47
5	861	159.039099225493	48
5	885	163.169890457237	49
5	901	166.086542421649	50
5	909	167.143271024832	51
5	925	169.618965531488	52
5	1005	183.603656475244	53
5	1021	186.47397091762	54
5	1029	187.860748138849	55
5	1085	198.150763931102	56
5	1117	204.223991297818	57
5	1125	206.098690480577	58
5	1133	207.96139474411	59
5	1157	212.669333749697	60
5	1165	213.883412655596	61
5	1189	218.290277846373	62
5	1205	221.025783474686	63
5	1213	222.300417662625	64
5	1237	227.001369618082	65
5	1269	232.474070638122	66
5	1293	236.574418912938	67
5	1301	238.177808400718	68
5	1309	239.847650637552	69

