version 2
run General-1-20231008-01:39:27-9598
attr configname General
attr datetime 20231008-01:39:27
attr experiment General
attr inifile omnetpp.ini
attr iterationvars ""
attr iterationvarsf ""
attr measurement ""
attr network Reliability
attr processid 9598
attr repetition 1
attr replication #1
attr resultdir results
attr runnumber 1
attr seedset 1
param Reliability.node[*].transmissionTime "uniform(1s, 2s)"
param Reliability.node[*].delayTime "uniform(0.01s, 0.2s)"
param Reliability.node[*].processingTime exponential(0.01s)
param Reliability.node[*].lossProbability 0.0

vector 0 Reliability.node[0] txVector ETV
vector 1 Reliability.node[1] txVector ETV
vector 2 Reliability.node[3] txVector ETV
vector 3 Reliability.node[4] txVector ETV
vector 4 Reliability.node[5] rxVector ETV
vector 5 Reliability.node[2] txVector ETV
0	1	0.089234179703	0
0	9	2.086418987836	1
0	17	3.272679199117	2
0	25	4.797227361823	3
0	33	6.355917189155	4
0	41	7.44871799939	5
0	49	8.618548422006	6
0	57	9.816099315534	7
0	65	11.566243627925	8
0	73	12.639607802151	9
0	81	13.658974760562	10
0	89	15.224886789104	11
0	97	16.638942775201	12
0	105	17.778908895446	13
0	113	18.918185238844	14
0	121	20.489193800954	15
0	129	21.838092139574	16
0	137	23.336201208994	17
0	145	24.744338013116	18
0	153	25.897267835565	19
0	161	27.520627952531	20
0	169	28.993102993934	21
0	177	30.746979187128	22
0	185	31.854344495457	23
0	193	33.69637538877	24
0	201	35.064218629269	25
0	209	36.927760481952	26
0	217	38.864950807883	27
0	225	39.877506789869	28
0	233	41.029643947143	29
0	241	42.269491710585	30
0	249	43.920612275951	31
0	257	45.909228431877	32
0	265	47.371380946717	33
0	273	49.124136505068	34
0	281	50.700720722905	35
0	289	52.472898752314	36
0	297	54.22923414258	37
0	305	55.619241860581	38
0	313	56.987618714457	39
0	321	58.49328088423	40
0	329	59.598672134455	41
0	337	61.180686313778	42
0	345	62.526974825075	43
0	353	64.12045623211	44
0	361	65.66435346904	45
0	369	67.343422306355	46
0	377	68.425677214635	47
0	385	70.01251055219	48
0	393	71.017173864998	49
0	401	72.41865345056	50
0	409	74.1033413586	51
0	417	76.007183309298	52
0	425	77.867066878712	53
0	433	79.435924874738	54
0	441	80.67413578986	55
0	449	82.243630201209	56
0	457	84.082409609927	57
0	465	85.275372343257	58
0	473	86.330831664734	59
0	481	87.807972650163	60
0	489	89.79603732785	61
0	497	91.120399790236	62
0	505	92.320671195981	63
0	513	93.930912012585	64
0	521	95.244667393972	65
0	529	97.027416810511	66
0	537	98.438771218179	67
0	545	99.574199121097	68
0	553	100.888345646556	69
0	561	102.330249924795	70
0	569	103.977003838984	71
0	577	105.775608082885	72
0	585	107.278604615364	73
0	593	108.31092768407	74
0	601	110.005334536429	75
0	609	111.70213503216	76
0	617	113.358450891567	77
0	625	114.817034704728	78
0	633	116.653214710416	79
0	641	118.055607226329	80
0	649	119.743723327411	81
0	657	121.539690267179	82
0	665	123.235695661163	83
0	673	124.636569390656	84
0	681	126.484359371127	85
0	689	128.018012719113	86
0	697	129.246617528494	87
0	705	130.768668779289	88
0	713	132.649012249313	89
0	721	134.166279847618	90
0	729	136.052779331455	91
0	737	137.280089066016	92
0	745	138.446902884521	93
0	753	139.503867287307	94
0	761	141.087305818337	95
0	769	142.988868402203	96
0	777	144.868524396911	97
0	785	146.692762238325	98
0	793	148.464359617445	99
0	801	149.47524835251	100
0	809	151.110765514315	101
0	817	152.615284683301	102
0	825	154.54754185735	103
0	833	156.462330543555	104
0	841	158.084919118674	105
0	849	159.756648901503	106
0	857	161.372412260042	107
0	865	163.139696772329	108
0	873	164.680989350544	109
0	881	166.355553375909	110
0	889	168.010514520228	111
0	897	169.933970739486	112
0	905	171.341101380883	113
0	913	172.529846452529	114
0	921	174.490074070989	115
0	929	175.915635456917	116
0	937	176.997961553865	117
0	945	178.49207781826	118
0	953	180.098519591734	119
0	961	181.275680752358	120
0	969	182.859780577131	121
0	977	184.582695769731	122
0	985	186.287257969732	123
0	993	187.291051644486	124
0	1001	188.323751151682	125
0	1009	189.72561707802	126
0	1017	191.25259166642	127
0	1025	192.539303315225	128
0	1033	194.003536328328	129
0	1041	195.225018382426	130
0	1049	196.675156320566	131
0	1057	198.58446831082	132
0	1065	200.066715720231	133
0	1073	201.914655108359	134
0	1081	203.618154424597	135
0	1089	205.564306815742	136
0	1097	207.423858586355	137
0	1105	208.915403735946	138
0	1113	210.451787864679	139
0	1121	211.465880157548	140
0	1129	213.370725931722	141
0	1137	214.692545896984	142
0	1145	215.789319917682	143
0	1153	217.408906658535	144
0	1161	218.440103248582	145
0	1169	219.928024745668	146
0	1177	221.482580351532	147
0	1185	222.710786086862	148
0	1193	224.471421315224	149
0	1201	226.159918631782	150
0	1209	227.323095196515	151
0	1217	228.97140795773	152
0	1225	230.953656915697	153
0	1233	232.21553731978	154
0	1241	233.927602845831	155
0	1249	235.052354148245	156
0	1257	236.52335866483	157
0	1265	238.373328556894	158
0	1273	239.436044137348	159
1	3	0.126198958082	0
1	11	2.100658752624	1
1	19	3.288539233762	2
1	27	4.808740091	3
1	35	6.373218466206	4
1	43	7.479767029236	5
1	51	8.631968110171	6
1	59	9.871072422218	7
1	67	11.582578053504	8
1	75	12.660965821362	9
1	83	13.678492341814	10
1	91	15.246741576491	11
1	99	16.664664368889	12
1	107	17.805379841049	13
1	115	18.938341833371	14
1	123	20.502339920695	15
1	131	21.848858704168	16
1	139	23.348906535028	17
1	147	24.762980546144	18
1	155	25.907427312891	19
1	163	27.544205597959	20
1	171	29.028745680126	21
1	179	30.764108814883	22
1	187	31.865670366039	23
1	195	33.723141586499	24
1	203	35.087967096215	25
1	211	36.962578780612	26
1	219	38.875697766227	27
1	227	39.889269610537	28
1	235	41.046451583153	29
1	243	42.279896634219	30
1	251	43.939281217366	31
1	259	45.920647147196	32
1	267	47.382069480698	33
1	275	49.152440169964	34
1	283	50.734560394547	35
1	291	52.487967275541	36
1	299	54.2458892812	37
1	307	55.63863763299	38
1	315	56.997836312914	39
1	323	58.510274064236	40
1	331	59.629777906263	41
1	339	61.199291743792	42
1	347	62.542660720584	43
1	355	64.13257901343	44
1	363	65.699437487542	45
1	371	67.355139161516	46
1	379	68.449541028847	47
1	387	70.025578566459	48
1	395	71.030992092311	49
1	403	72.431854130361	50
1	411	74.12420977144	51
1	419	76.019230383541	52
1	427	77.88333504155	53
1	435	79.446379221131	54
1	443	80.685890895135	55
1	451	82.255130062089	56
1	459	84.099332768599	57
1	467	85.287087104612	58
1	475	86.342488334698	59
1	483	87.819535585481	60
1	491	89.826666899775	61
1	499	91.140211058934	62
1	507	92.346746356712	63
1	515	93.94347981242	64
1	523	95.301202368594	65
1	531	97.071244462612	66
1	539	98.45316720666	67
1	547	99.597150446543	68
1	555	100.907058280313	69
1	563	102.365649922104	70
1	571	103.990532537831	71
1	579	105.801100028623	72
1	587	107.300962252001	73
1	595	108.327033736806	74
1	603	110.029867915472	75
1	611	111.712248476386	76
1	619	113.369653850124	77
1	627	114.867287944124	78
1	635	116.686720512378	79
1	643	118.074992924325	80
1	651	119.778406692539	81
1	659	121.557788410998	82
1	667	123.248570491126	83
1	675	124.65700278973	84
1	683	126.498134957617	85
1	691	128.046495150756	86
1	699	129.260562628945	87
1	707	130.785559998364	88
1	715	132.683830066809	89
1	723	134.18482109055	90
1	731	136.066553599585	91
1	739	137.295876621559	92
1	747	138.459501137173	93
1	755	139.540195391142	94
1	763	141.106359522416	95
1	771	143.002722805359	96
1	779	144.888537868545	97
1	787	146.705111015052	98
1	795	148.488559298081	99
1	803	149.485626284703	100
1	811	151.131969462509	101
1	819	152.631276861028	102
1	827	154.567880250738	103
1	835	156.478457299082	104
1	843	158.09926439677	105
1	851	159.769686115069	106
1	859	161.386103234253	107
1	867	163.152880919077	108
1	875	164.707072562761	109
1	883	166.372845141998	110
1	891	168.032758037624	111
1	899	169.971297441507	112
1	907	171.361426695413	113
1	915	172.543507222907	114
1	923	174.515315016758	115
1	931	175.927866454979	116
1	939	177.009379046151	117
1	947	178.525131001819	118
1	955	180.117015382283	119
1	963	181.290568663037	120
1	971	182.871723089856	121
1	979	184.60316929174	122
1	987	186.324424230248	123
1	995	187.315358003215	124
1	1003	188.345701547409	125
1	1011	189.736614641263	126
1	1019	191.264080782103	127
1	1027	192.550025827625	128
1	1035	194.019833279956	129
1	1043	195.241235887916	130
1	1051	196.694457149639	131
1	1059	198.605551543786	132
1	1067	200.079614420092	133
1	1075	201.92664103811	134
1	1083	203.628244217588	135
1	1091	205.583841362673	136
1	1099	207.453286909934	137
1	1107	208.947743742342	138
1	1115	210.474373763403	139
1	1123	211.476533775209	140
1	1131	213.382620657806	141
1	1139	214.704127941482	142
1	1147	215.802223882941	143
1	1155	217.419554285972	144
1	1163	218.469438074699	145
1	1171	219.946245455035	146
1	1179	221.492718983216	147
1	1187	222.744515291706	148
1	1195	224.48434351926	149
1	1203	226.18008188663	150
1	1211	227.334957778062	151
1	1219	229.009975481115	152
1	1227	230.982269743858	153
1	1235	232.232639770257	154
1	1243	233.943962726807	155
1	1251	235.07009740321	156
1	1259	236.547266550936	157
1	1267	238.384531004492	158
1	1275	239.449393605651	159
2	5	0.139799085561	0
2	37	6.405719024898	1
2	53	8.653567698854	2
2	69	11.596053990019	3
2	85	13.697391399221	4
2	93	15.264519927446	5
2	117	18.969823842754	6
2	157	25.93524694436	7
2	173	29.046061689014	8
2	181	30.79377194011	9
2	197	33.735793935862	10
2	205	35.103559946808	11
2	221	38.890173375908	12
2	245	42.299219043329	13
2	261	45.935268838412	14
2	277	49.165495871435	15
2	285	50.756177778188	16
2	325	58.536854606415	17
2	333	59.640019645687	18
2	341	61.216030161586	19
2	349	62.572597161558	20
2	405	72.446060114363	21
2	429	77.903449042741	22
2	445	80.719312397114	23
2	469	85.29974847814	24
2	477	86.363896439084	25
2	493	89.841007417867	26
2	525	95.345626517364	27
2	541	98.470801494053	28
2	565	102.376236063781	29
2	573	104.002810008249	30
2	581	105.818886029442	31
2	589	107.315615799302	32
2	597	108.338188055908	33
2	613	111.723064774133	34
2	629	114.883790210142	35
2	653	119.789216395048	36
2	685	126.509462046817	37
2	701	129.292352324332	38
2	741	137.308625670302	39
2	749	138.470994430951	40
2	765	141.128776107117	41
2	773	143.014561832896	42
2	781	144.899117271059	43
2	789	146.72143395086	44
2	797	148.549616260564	45
2	813	151.146362395529	46
2	829	154.578985864347	47
2	837	156.497096644172	48
2	845	158.109372699059	49
2	853	159.796173018626	50
2	861	161.396694868063	51
2	869	163.167614332591	52
2	877	164.718912828827	53
2	893	168.043461925815	54
2	901	169.986475975856	55
2	909	171.394780992663	56
2	917	172.557009641006	57
2	933	175.961366472185	58
2	941	177.032127217084	59
2	957	180.152266074363	60
2	973	182.921927854773	61
2	1005	188.36790542556	62
2	1021	191.284014428129	63
2	1029	192.565583153651	64
2	1045	195.261913692789	65
2	1077	201.982053661835	66
2	1085	203.639134277158	67
2	1101	207.472671833308	68
2	1141	214.724242369225	69
2	1173	219.959516490141	70
2	1181	221.508385050615	71
2	1197	224.500923204197	72
2	1205	226.200069012127	73
2	1213	227.361588641337	74
2	1221	229.026852883075	75
2	1237	232.262275997902	76
2	1245	233.994588876466	77
3	7	0.152492125138	0
3	15	2.153509106567	1
3	23	3.33334659484	2
3	31	4.878310689363	3
3	39	6.433415289004	4
3	47	7.540432649275	5
3	55	8.668887150399	6
3	63	9.910189917708	7
3	71	11.607326535339	8
3	79	12.711859561428	9
3	87	13.710018242857	10
3	95	15.28219640239	11
3	103	16.701279114862	12
3	111	17.859353812182	13
3	119	18.990257966884	14
3	127	20.569793501014	15
3	135	21.903104259674	16
3	143	23.383701628447	17
3	151	24.811051917071	18
3	159	26.004476975015	19
3	167	27.578758183756	20
3	175	29.05626249302	21
3	183	30.806408451055	22
3	191	31.92156231857	23
3	199	33.755285900476	24
3	207	35.114177825297	25
3	215	36.985503494047	26
3	223	38.902446061898	27
3	231	39.918490147447	28
3	239	41.108196530382	29
3	247	42.315293922451	30
3	255	43.980068067999	31
3	263	45.94604044011	32
3	271	47.405220784841	33
3	279	49.188515831522	34
3	287	50.768848237373	35
3	295	52.516181654061	36
3	303	54.292194698542	37
3	311	55.661366443051	38
3	319	57.050511259006	39
3	327	58.550160178782	40
3	335	59.656179289981	41
3	343	61.22979326668	42
3	351	62.604936029965	43
3	359	64.162207319534	44
3	367	65.744375884688	45
3	375	67.387961390822	46
3	383	68.481887720764	47
3	391	70.054320071284	48
3	399	71.095655864188	49
3	407	72.456384894008	50
3	415	74.163678948802	51
3	423	76.058307206336	52
3	431	77.918195975653	53
3	439	79.483844188236	54
3	447	80.731861835154	55
3	455	82.301636844838	56
3	463	84.12227293078	57
3	471	85.331868348882	58
3	479	86.384513574488	59
3	487	87.859426014576	60
3	495	89.871152069367	61
3	503	91.174101265978	62
3	511	92.388707345017	63
3	519	93.9749035227	64
3	527	95.378784075432	65
3	535	97.153025086682	66
3	543	98.494491430408	67
3	551	99.635635026617	68
3	559	100.936574698898	69
3	567	102.392506057768	70
3	575	104.031378777454	71
3	583	105.842285137225	72
3	591	107.328118798192	73
3	599	108.348656996484	74
3	607	110.079506725649	75
3	615	111.744459715305	76
3	623	113.42654555173	77
3	631	114.894692264442	78
3	639	116.718667361467	79
3	647	118.109993827961	80
3	655	119.801294409377	81
3	663	121.593278652821	82
3	671	123.292043712174	83
3	679	124.728581674805	84
3	687	126.525146458771	85
3	695	128.089613700398	86
3	703	129.314071507605	87
3	711	130.807941555063	88
3	719	132.710237609224	89
3	727	134.231471670286	90
3	735	136.111303224662	91
3	743	137.325135178229	92
3	751	138.488313643438	93
3	759	139.578865015147	94
3	767	141.139452170988	95
3	775	143.029936816821	96
3	783	144.909249505057	97
3	791	146.740941586708	98
3	799	148.562103877547	99
3	807	149.513363784936	100
3	815	151.156594213107	101
3	823	152.676447028394	102
3	831	154.608598383326	103
3	839	156.512591714989	104
3	847	158.133129045341	105
3	855	159.806540588914	106
3	863	161.409197404112	107
3	871	163.179657003729	108
3	879	164.73124004229	109
3	887	166.403107553241	110
3	895	168.090777103228	111
3	903	170.000463144051	112
3	911	171.413967784709	113
3	919	172.57147458502	114
3	927	174.553103304855	115
3	935	175.984130880498	116
3	943	177.049218391318	117
3	951	178.575947492263	118
3	959	180.164368421	119
3	967	181.326509625015	120
3	975	182.95160592594	121
3	983	184.673829562889	122
3	991	186.35429395859	123
3	999	187.3621499053	124
3	1007	188.400579207888	125
3	1015	189.762179647869	126
3	1023	191.297932099695	127
3	1031	192.579897973184	128
3	1039	194.066010074346	129
3	1047	195.273254677858	130
3	1055	196.764856365196	131
3	1063	198.655074437433	132
3	1071	200.137714876293	133
3	1079	201.992699144471	134
3	1087	203.65492944143	135
3	1095	205.618912148312	136
3	1103	207.487746656122	137
3	1111	208.979479724938	138
3	1119	210.501473343607	139
3	1127	211.512293132877	140
3	1135	213.432795110359	141
3	1143	214.737555741073	142
3	1151	215.839739700479	143
3	1159	217.456994795037	144
3	1167	218.514878587058	145
3	1175	219.996983905958	146
3	1183	221.522586191069	147
3	1191	222.76795774813	148
3	1199	224.516450956099	149
3	1207	226.214989319506	150
3	1215	227.392409710131	151
3	1223	229.047704770382	152
3	1231	231.022795078225	153
3	1239	232.28908180615	154
3	1247	234.014947664067	155
3	1255	235.106945030307	156
3	1263	236.573238441344	157
3	1271	238.41109509436	158
3	1279	239.491356165869	159
4	8	0.162492125138	0
4	16	2.163509106567	1
4	24	3.34334659484	2
4	32	4.888310689363	3
4	40	6.443415289004	4
4	48	7.550432649275	5
4	56	8.678887150399	6
4	64	9.920189917708	7
4	72	11.617326535339	8
4	80	12.721859561428	9
4	88	13.720018242857	10
4	96	15.29219640239	11
4	104	16.711279114862	12
4	112	17.869353812182	13
4	120	19.000257966884	14
4	128	20.579793501014	15
4	136	21.913104259674	16
4	144	23.393701628447	17
4	152	24.821051917071	18
4	160	26.014476975015	19
4	168	27.588758183756	20
4	176	29.06626249302	21
4	184	30.816408451055	22
4	192	31.93156231857	23
4	200	33.765285900476	24
4	208	35.124177825297	25
4	216	36.995503494047	26
4	224	38.912446061898	27
4	232	39.928490147447	28
4	240	41.118196530382	29
4	248	42.325293922451	30
4	256	43.990068067999	31
4	264	45.95604044011	32
4	272	47.415220784841	33
4	280	49.198515831522	34
4	288	50.778848237373	35
4	296	52.526181654061	36
4	304	54.302194698542	37
4	312	55.671366443051	38
4	320	57.060511259006	39
4	328	58.560160178782	40
4	336	59.666179289981	41
4	344	61.23979326668	42
4	352	62.614936029965	43
4	360	64.172207319534	44
4	368	65.754375884688	45
4	376	67.397961390822	46
4	384	68.491887720764	47
4	392	70.064320071284	48
4	400	71.105655864188	49
4	408	72.466384894008	50
4	416	74.173678948802	51
4	424	76.068307206336	52
4	432	77.928195975653	53
4	440	79.493844188236	54
4	448	80.741861835154	55
4	456	82.311636844838	56
4	464	84.13227293078	57
4	472	85.341868348882	58
4	480	86.394513574488	59
4	488	87.869426014576	60
4	496	89.881152069367	61
4	504	91.184101265978	62
4	512	92.398707345017	63
4	520	93.9849035227	64
4	528	95.388784075432	65
4	536	97.163025086682	66
4	544	98.504491430408	67
4	552	99.645635026617	68
4	560	100.946574698898	69
4	568	102.402506057768	70
4	576	104.041378777454	71
4	584	105.852285137225	72
4	592	107.338118798192	73
4	600	108.358656996484	74
4	608	110.089506725649	75
4	616	111.754459715305	76
4	624	113.43654555173	77
4	632	114.904692264442	78
4	640	116.728667361467	79
4	648	118.119993827961	80
4	656	119.811294409377	81
4	664	121.603278652821	82
4	672	123.302043712174	83
4	680	124.738581674805	84
4	688	126.535146458771	85
4	696	128.099613700398	86
4	704	129.324071507605	87
4	712	130.817941555063	88
4	720	132.720237609224	89
4	728	134.241471670286	90
4	736	136.121303224662	91
4	744	137.335135178229	92
4	752	138.498313643438	93
4	760	139.588865015147	94
4	768	141.149452170988	95
4	776	143.039936816821	96
4	784	144.919249505057	97
4	792	146.750941586708	98
4	800	148.572103877547	99
4	808	149.523363784936	100
4	816	151.166594213107	101
4	824	152.686447028394	102
4	832	154.618598383326	103
4	840	156.522591714989	104
4	848	158.143129045341	105
4	856	159.816540588914	106
4	864	161.419197404112	107
4	872	163.189657003729	108
4	880	164.74124004229	109
4	888	166.413107553241	110
4	896	168.100777103228	111
4	904	170.010463144051	112
4	912	171.423967784709	113
4	920	172.58147458502	114
4	928	174.563103304855	115
4	936	175.994130880498	116
4	944	177.059218391318	117
4	952	178.585947492263	118
4	960	180.174368421	119
4	968	181.336509625015	120
4	976	182.96160592594	121
4	984	184.683829562889	122
4	992	186.36429395859	123
4	1000	187.3721499053	124
4	1008	188.410579207888	125
4	1016	189.772179647869	126
4	1024	191.307932099695	127
4	1032	192.589897973184	128
4	1040	194.076010074346	129
4	1048	195.283254677858	130
4	1056	196.774856365196	131
4	1064	198.665074437433	132
4	1072	200.147714876293	133
4	1080	202.002699144471	134
4	1088	203.66492944143	135
4	1096	205.628912148312	136
4	1104	207.497746656122	137
4	1112	208.989479724938	138
4	1120	210.511473343607	139
4	1128	211.522293132877	140
4	1136	213.442795110359	141
4	1144	214.747555741073	142
4	1152	215.849739700479	143
4	1160	217.466994795037	144
4	1168	218.524878587058	145
4	1176	220.006983905958	146
4	1184	221.532586191069	147
4	1192	222.77795774813	148
4	1200	224.526450956099	149
4	1208	226.224989319506	150
4	1216	227.402409710131	151
4	1224	229.057704770382	152
4	1232	231.032795078225	153
4	1240	232.29908180615	154
4	1248	234.024947664067	155
4	1256	235.116945030307	156
4	1264	236.583238441344	157
4	1272	238.42109509436	158
4	1280	239.501356165869	159
5	13	2.138075712781	0
5	21	3.298816930038	1
5	29	4.83380841849	2
5	45	7.49875806005	3
5	61	9.884617698992	4
5	77	12.695095221943	5
5	101	16.68349667767	6
5	109	17.823110941681	7
5	125	20.526315024971	8
5	133	21.888714397061	9
5	141	23.373672883927	10
5	149	24.79469103637	11
5	165	27.566139823262	12
5	189	31.876630591217	13
5	213	36.975136860057	14
5	229	39.907977024138	15
5	237	41.096491121426	16
5	253	43.956390027128	17
5	269	47.393071085863	18
5	293	52.506101305018	19
5	301	54.256133249422	20
5	309	55.650548701324	21
5	317	57.040359929938	22
5	357	64.152047316487	23
5	365	65.729650531306	24
5	373	67.37368903687	25
5	381	68.459912542307	26
5	389	70.04157283883	27
5	397	71.049235111081	28
5	413	74.134375769256	29
5	421	76.04244078943	30
5	437	79.473084840793	31
5	453	82.289169102859	32
5	461	84.109422294954	33
5	485	87.836861782596	34
5	501	91.151250711638	35
5	509	92.365549783787	36
5	517	93.957715555291	37
5	533	97.132260492863	38
5	549	99.618949029658	39
5	557	100.923728060559	40
5	605	110.06390711362	41
5	621	113.411522754649	42
5	637	116.707324714833	43
5	645	118.085023149572	44
5	661	121.580205934948	45
5	669	123.26529804838	46
5	677	124.67072194108	47
5	693	128.069113947964	48
5	709	130.795653923867	49
5	717	132.695596697564	50
5	725	134.220104224759	51
5	733	136.095965925081	52
5	757	139.567169076209	53
5	805	149.501859842854	54
5	821	152.652438612469	55
5	885	166.386476643276	56
5	925	174.540968277858	57
5	949	178.550621574325	58
5	965	181.30857792867	59
5	981	184.625789867153	60
5	989	186.337023013703	61
5	997	187.340068795732	62
5	1013	189.750211388963	63
5	1037	194.03502501534	64
5	1053	196.747963705474	65
5	1061	198.644157016268	66
5	1069	200.097987629685	67
5	1093	205.59528397713	68
5	1109	208.961228198305	69
5	1117	210.484399261236	70
5	1125	211.491750667302	71
5	1133	213.417570816866	72
5	1149	215.825315642087	73
5	1157	217.446071375441	74
5	1165	218.496075419331	75
5	1189	222.756077125929	76
5	1229	231.003455228037	77
5	1253	235.086421044631	78
5	1261	236.562569134418	79
5	1269	238.400025848912	80
5	1277	239.470316213175	81

