version 2
run General-3-20231007-21:33:18-5989
attr configname General
attr datetime 20231007-21:33:18
attr experiment General
attr inifile omnetpp.ini
attr iterationvars ""
attr iterationvarsf ""
attr measurement ""
attr network Reliability
attr processid 5989
attr repetition 3
attr replication #3
attr resultdir results
attr runnumber 3
attr seedset 3
param Reliability.node[*].transmissionTime "uniform(1s, 2s)"
param Reliability.node[*].delayTime "uniform(0.01s, 0.2s)"
param Reliability.node[*].processingTime exponential(0.01s)
param Reliability.node[*].lossProbability 0.2

vector 0 Reliability.node[0] txVector ETV
vector 1 Reliability.node[1] txVector ETV
vector 2 Reliability.node[3] txVector ETV
vector 3 Reliability.node[2] txVector ETV
vector 4 Reliability.node[4] txVector ETV
vector 5 Reliability.node[5] rxVector ETV
0	1	0.114651601831	0
0	5	1.185376482154	1
0	11	2.69620408311	2
0	17	3.90344696173	3
0	25	5.360280184378	4
0	35	7.126106558903	5
0	43	8.58071432386	6
0	45	10.517097976826	7
0	47	12.493093404755	8
0	59	14.165477083366	9
0	75	15.48124433176	10
0	77	16.682623046053	11
0	97	18.196658099837	12
0	105	19.498921713394	13
0	113	21.222860849996	14
0	115	22.398922965231	15
0	117	24.389224153778	16
0	119	26.08187477018	17
0	123	27.834014800212	18
0	135	29.786116045269	19
0	147	31.586719556081	20
0	167	32.778791853062	21
0	171	34.388437567813	22
0	175	35.531769882258	23
0	183	36.788976260297	24
0	191	38.441199385164	25
0	197	40.301252848072	26
0	213	42.292548568988	27
0	225	44.019700641114	28
0	243	45.723440341254	29
0	269	47.651939187733	30
0	271	48.67403500208	31
0	277	49.89641132166	32
0	283	51.373343085939	33
0	291	53.176171056064	34
0	295	54.252667336794	35
0	297	55.378488376573	36
0	307	57.371411933633	37
0	315	59.160001069842	38
0	317	60.639508381089	39
0	323	61.640253901318	40
0	331	63.319755709101	41
0	337	64.500496038072	42
0	345	66.293818716262	43
0	351	67.569371177651	44
0	353	69.180965014104	45
0	357	70.222995868022	46
0	369	71.32357358078	47
0	377	72.956229350367	48
0	381	74.812847508886	49
0	391	76.258761619288	50
0	393	78.186290895637	51
0	399	79.406627226692	52
0	407	80.463499798976	53
0	415	81.89501802351	54
0	423	83.790757550929	55
0	425	85.330629695278	56
0	431	87.193881304307	57
0	433	89.036122531701	58
0	437	90.669083064959	59
0	445	92.34389300116	60
0	453	93.915028627567	61
0	457	95.450004207041	62
0	461	96.862435273431	63
0	467	98.000245166315	64
0	485	99.516489647167	65
0	487	101.053924023478	66
0	495	103.049710332255	67
0	503	104.445972507891	68
0	509	106.020441967134	69
0	513	108.003603755102	70
0	515	109.895027428937	71
0	517	111.750575630532	72
0	519	113.078811983417	73
0	523	114.165055600998	74
0	525	115.699980937715	75
0	533	117.164517915181	76
0	535	118.247309940706	77
0	543	119.467983594236	78
0	545	120.812937059511	79
0	547	122.207688933542	80
0	551	123.229920822034	81
0	563	125.228267900717	82
0	571	127.133532801714	83
0	579	128.751625166113	84
0	589	130.23231695064	85
0	609	131.726646522364	86
0	617	132.816238984071	87
0	623	134.107521188982	88
0	629	135.264755870752	89
0	631	136.770722148079	90
0	643	137.831770216418	91
0	655	138.975952991355	92
0	663	140.533957076562	93
0	671	141.697545111017	94
0	677	142.76766412363	95
0	681	143.941462569941	96
0	685	145.800494641137	97
0	691	146.887012781647	98
0	699	148.753028600781	99
0	707	150.713892819199	100
0	713	152.224365654473	101
0	733	154.058902838339	102
0	741	155.892588357047	103
0	749	157.234796205374	104
0	751	158.66169479869	105
0	759	160.338968054929	106
0	761	161.514479688208	107
0	765	162.759677272828	108
0	767	164.197712108798	109
0	777	165.694779637808	110
0	789	167.446585528858	111
0	799	169.360408525754	112
0	807	171.083557684746	113
0	815	173.001890919011	114
0	821	174.812827531787	115
0	827	176.507352728935	116
0	839	178.48561434781	117
0	845	180.408975051556	118
0	857	182.23196407019	119
0	861	183.885367319061	120
0	873	185.343095258184	121
0	881	187.082232808534	122
0	889	188.167236149151	123
0	897	189.958397397611	124
0	899	191.44847207058	125
0	907	192.766270516513	126
0	913	194.225913371032	127
0	919	195.440056292646	128
0	931	197.157916440469	129
0	943	198.311027384436	130
0	947	199.411294396341	131
0	951	200.438436971584	132
0	953	201.719534046322	133
0	957	203.575378523746	134
0	965	205.210844310306	135
0	981	206.962727399848	136
0	993	208.802456999503	137
0	995	210.547207624258	138
0	1007	212.110802009541	139
0	1015	213.286458756847	140
0	1021	214.671193986738	141
0	1029	215.997135551253	142
0	1031	217.85802965828	143
0	1037	219.220807527031	144
0	1041	220.304387627474	145
0	1053	221.477354833229	146
0	1061	223.125033717674	147
0	1065	224.693854793279	148
0	1073	226.512972477895	149
0	1075	228.089913446761	150
0	1077	229.237026392787	151
0	1089	230.403199424806	152
0	1091	231.425469569235	153
0	1095	232.910856987887	154
0	1097	234.822780667876	155
0	1109	236.533649350821	156
0	1119	238.322369122018	157
0	1127	239.896970762244	158
1	3	0.14297423212	0
1	7	1.217720790617	1
1	13	2.706732472287	2
1	19	3.923920757162	3
1	27	5.406642398294	4
1	37	7.150280911162	5
1	49	12.526406759535	6
1	61	14.183750044635	7
1	79	16.693535752593	8
1	99	18.223109925674	9
1	107	19.515366971445	10
1	121	26.093110202761	11
1	125	27.85545963849	12
1	137	29.800422724063	13
1	149	31.609653777571	14
1	169	32.79007720478	15
1	173	34.403784088833	16
1	177	35.545008386195	17
1	185	36.830314603929	18
1	193	38.453663480102	19
1	199	40.312968679343	20
1	215	42.30699750487	21
1	227	44.041060139762	22
1	245	45.737951395042	23
1	273	48.688447153331	24
1	279	49.913673931097	25
1	285	51.406446315982	26
1	293	53.193910131866	27
1	299	55.394171763896	28
1	309	57.391021002109	29
1	319	60.649816183552	30
1	325	61.666111339065	31
1	333	63.343374826041	32
1	339	64.520555552488	33
1	347	66.305388646265	34
1	355	69.196365274066	35
1	359	70.239965880871	36
1	371	71.339841429063	37
1	379	72.982141697159	38
1	383	74.833981831993	39
1	395	78.199193486887	40
1	401	79.429175911889	41
1	409	80.498078214015	42
1	417	81.907897363752	43
1	427	85.349606199778	44
1	435	89.061785872875	45
1	439	90.694730300706	46
1	447	92.366270252161	47
1	455	93.936771593018	48
1	459	95.49403526366	49
1	463	96.872456551661	50
1	469	98.01868971107	51
1	489	101.064427027974	52
1	497	103.064592371495	53
1	505	104.456493654539	54
1	511	106.059557223668	55
1	521	113.093007815412	56
1	527	115.710048104976	57
1	537	118.276355616828	58
1	549	122.228487242908	59
1	553	123.25001742725	60
1	565	125.238399592155	61
1	573	127.165498312182	62
1	581	128.762504975318	63
1	591	130.249824823669	64
1	611	131.73858969583	65
1	619	132.827804314736	66
1	625	134.117808209612	67
1	633	136.78267943785	68
1	645	137.851373717832	69
1	657	138.986101232563	70
1	665	140.547475307039	71
1	673	141.72486372132	72
1	679	142.797284807002	73
1	683	143.962390680979	74
1	687	145.816210781047	75
1	693	146.901788644762	76
1	701	148.779568354342	77
1	709	150.727394442103	78
1	715	152.236295443314	79
1	735	154.074619887137	80
1	743	155.915557679654	81
1	753	158.677466818953	82
1	763	161.525168581135	83
1	769	164.235756269162	84
1	779	165.70648445215	85
1	791	167.49319664137	86
1	801	169.382764537187	87
1	809	171.098713814129	88
1	817	173.011964107463	89
1	823	174.833705049007	90
1	829	176.518331587276	91
1	841	178.499048752115	92
1	847	180.434152590836	93
1	859	182.242857983905	94
1	863	183.924455676311	95
1	875	185.35327336099	96
1	883	187.111623425513	97
1	891	188.199392036861	98
1	901	191.476495524264	99
1	909	192.788826592723	100
1	915	194.239834808368	101
1	921	195.461580095334	102
1	933	197.172793415592	103
1	945	198.325019178328	104
1	949	199.428888886926	105
1	955	201.735566831001	106
1	959	203.594519258826	107
1	967	205.224319451281	108
1	983	206.973151725839	109
1	997	210.563211980353	110
1	1009	212.125566510601	111
1	1017	213.299907968214	112
1	1023	214.681874592358	113
1	1033	217.871921142055	114
1	1039	219.236307895023	115
1	1043	220.314526954438	116
1	1055	221.500720782398	117
1	1063	223.135921502429	118
1	1067	224.713675626695	119
1	1079	229.256723365778	120
1	1093	231.438375494494	121
1	1099	234.836402306255	122
1	1111	236.545994887655	123
1	1121	238.356196764186	124
1	1129	239.915172909729	125
2	9	1.227910050438	0
2	29	5.42200556261	1
2	33	5.451469883927	2
2	39	7.163938983927	3
2	51	12.5414982125	4
2	55	12.577936847401	5
2	67	14.238859479363	6
2	71	14.28260148489	7
2	85	16.747851728915	8
2	89	16.798102509724	9
2	93	16.839749734576	10
2	109	19.527685864987	11
2	131	27.910147855607	12
2	143	29.861181736151	13
2	155	31.696808300088	14
2	159	31.727063692909	15
2	163	31.760698196913	16
2	179	35.565538738014	17
2	187	36.848236122287	18
2	195	38.48183194102	19
2	201	40.34556109377	20
2	205	40.38967614503	21
2	209	40.428380921199	22
2	221	42.349680784825	23
2	233	44.09497806904	24
2	237	44.122685088868	25
2	241	44.165980187979	26
2	247	45.766810155788	27
2	251	45.801671019015	28
2	255	45.850107976135	29
2	259	45.877527841336	30
2	263	45.90751037451	31
2	267	45.958606378432	32
2	287	51.438008801348	33
2	305	55.446040846438	34
2	321	60.663056434625	35
2	327	61.68160396208	36
2	335	63.362463093635	37
2	349	66.330047811133	38
2	361	70.250601038984	39
2	365	70.324340073227	40
2	385	74.854054199998	41
2	389	74.883614211894	42
2	397	78.209426408309	43
2	475	98.090065643949	44
2	479	98.129561888237	45
2	483	98.18004503795	46
2	491	101.084605566617	47
2	499	103.082595967793	48
2	507	104.475676546362	49
2	559	123.313486712598	50
2	567	125.24948641812	51
2	575	127.180815107356	52
2	583	128.780802018196	53
2	587	128.810509822824	54
2	597	130.301730357008	55
2	601	130.354898234518	56
2	605	130.426936278636	57
2	613	131.752767248562	58
2	621	132.843721765579	59
2	635	136.796448227888	60
2	639	136.867730137787	61
2	647	137.899269217124	62
2	651	137.962056883462	63
2	667	140.558616529317	64
2	689	145.868827838087	65
2	703	148.793838840841	66
2	721	152.291679000308	67
2	725	152.353614901571	68
2	729	152.396813646231	69
2	737	154.092219629895	70
2	745	155.943818168651	71
2	775	164.298574406371	72
2	785	165.784045449307	73
2	793	167.526191596874	74
2	797	167.564938015352	75
2	803	169.399574798911	76
2	819	173.025803572149	77
2	831	176.528374224407	78
2	835	176.574994437461	79
2	853	180.491645934004	80
2	865	183.946064807721	81
2	869	183.978202028125	82
2	885	187.124739993103	83
2	903	191.503799463414	84
2	911	192.823584246857	85
2	923	195.473239585709	86
2	927	195.534545217727	87
2	939	197.222362994117	88
2	969	205.239537009461	89
2	973	205.275255314354	90
2	977	205.307599025096	91
2	985	206.983959764452	92
2	989	207.027436582633	93
2	1003	210.635984746045	94
2	1011	212.141783230603	95
2	1045	220.329041989957	96
2	1049	220.354464975734	97
2	1057	221.512890580186	98
2	1085	229.30617697439	99
2	1105	234.880775670384	100
2	1113	236.556451877796	101
2	1117	236.589518033864	102
2	1123	238.369445983796	103
2	1135	239.959675209656	104
2	1139	239.993277230329	105
3	15	2.728601127249	0
3	21	3.938288845562	1
3	63	14.196886686058	2
3	81	16.709439861577	3
3	101	18.235731163296	4
3	127	27.869948333731	5
3	139	29.821220410642	6
3	151	31.651435011969	7
3	217	42.322204564006	8
3	229	44.055644100076	9
3	275	48.705720076137	10
3	281	49.941334911317	11
3	301	55.412925937101	12
3	311	57.402682602345	13
3	341	64.533625227974	14
3	373	71.353908832847	15
3	403	79.45176075441	16
3	411	80.531175406126	17
3	419	81.954763621059	18
3	429	85.367238378359	19
3	441	90.713816121212	20
3	449	92.384420403893	21
3	465	96.887709006652	22
3	471	98.038037917987	23
3	529	115.727807975743	24
3	539	118.296013769327	25
3	555	123.271987556305	26
3	593	130.260754543968	27
3	627	134.149765296044	28
3	659	139.002055152024	29
3	675	141.745262810884	30
3	695	146.926219710098	31
3	711	150.747745664944	32
3	717	152.251352160352	33
3	755	158.689179988941	34
3	771	164.257587664698	35
3	781	165.723250576468	36
3	811	171.11007686648	37
3	825	174.844172964822	38
3	843	178.526428831811	39
3	849	180.465080655274	40
3	877	185.390896490325	41
3	893	188.216125710954	42
3	917	194.252446980755	43
3	935	197.184042980254	44
3	961	203.608527460693	45
3	999	210.582211914663	46
3	1019	213.31537861288	47
3	1025	214.710478277498	48
3	1035	217.908861195785	49
3	1069	224.734133238898	50
3	1081	229.274576675039	51
3	1101	234.84856075584	52
3	1131	239.926701572218	53
4	23	3.957225893101	0
4	31	5.435663593501	1
4	41	7.19629433493	2
4	53	12.552465711783	3
4	57	12.592424197789	4
4	65	14.209160141342	5
4	69	14.269344494991	6
4	73	14.29338326393	7
4	83	16.731739150045	8
4	87	16.769537155441	9
4	91	16.812255371455	10
4	95	16.855640220118	11
4	103	18.252317573595	12
4	111	19.538439159799	13
4	129	27.883012045647	14
4	133	27.933105794653	15
4	141	29.84662561001	16
4	145	29.87906472745	17
4	153	31.680471183907	18
4	157	31.713519676841	19
4	161	31.74370140644	20
4	165	31.7726487808	21
4	181	35.593571775131	22
4	189	36.858830772289	23
4	203	40.359716337985	24
4	207	40.416660768771	25
4	211	40.442058045075	26
4	219	42.335970704015	27
4	223	42.361350073645	28
4	231	44.067383434334	29
4	235	44.106097688555	30
4	239	44.135408903433	31
4	249	45.786035521027	32
4	253	45.821973314455	33
4	257	45.864903327172	34
4	261	45.89330823321	35
4	265	45.930245433932	36
4	289	51.451663468942	37
4	303	55.426398198829	38
4	313	57.412996778355	39
4	329	61.69656264284	40
4	343	64.554271218824	41
4	363	70.278858550393	42
4	367	70.341967081069	43
4	375	71.381536584373	44
4	387	74.865258310824	45
4	405	79.468244244894	46
4	413	80.543812248477	47
4	421	81.971817544823	48
4	443	90.733791457495	49
4	451	92.402885689612	50
4	473	98.070243785057	51
4	477	98.108112181746	52
4	481	98.167302988184	53
4	493	101.095007137193	54
4	501	103.100207633808	55
4	531	115.754972150938	56
4	541	118.308591176716	57
4	557	123.289400107306	58
4	561	123.329348629001	59
4	569	125.264296255666	60
4	577	127.192511128457	61
4	585	128.794140872573	62
4	595	130.283846904905	63
4	599	130.332406048156	64
4	603	130.416170883788	65
4	607	130.440576315777	66
4	615	131.77403747395	67
4	637	136.82564946832	68
4	641	136.887412519933	69
4	649	137.94009258866	70
4	653	137.982881294938	71
4	661	139.025295072309	72
4	669	140.584338253869	73
4	697	146.954687552645	74
4	705	148.81111870658	75
4	719	152.26150431983	76
4	723	152.324983626697	77
4	727	152.383877112154	78
4	731	152.417292227305	79
4	739	154.124247472712	80
4	747	155.954393253798	81
4	757	158.712295218897	82
4	773	164.272764240032	83
4	783	165.770541559366	84
4	787	165.796796788453	85
4	795	167.550556464815	86
4	805	169.411119514409	87
4	813	171.12678508121	88
4	833	176.548404116334	89
4	837	176.587811850517	90
4	851	180.480193454614	91
4	855	180.526052669663	92
4	867	183.967223608529	93
4	871	183.993947339136	94
4	879	185.407921256423	95
4	887	187.167064984234	96
4	895	188.254573594046	97
4	905	191.525025428186	98
4	925	195.494658532871	99
4	929	195.545880476551	100
4	937	197.201196569178	101
4	941	197.248048768187	102
4	963	203.633796989488	103
4	971	205.25478189601	104
4	975	205.28530060047	105
4	979	205.31929427603	106
4	987	206.998290749115	107
4	991	207.040417485172	108
4	1001	210.592588157705	109
4	1005	210.649260680629	110
4	1013	212.177342083176	111
4	1027	214.725458773432	112
4	1047	220.342874358773	113
4	1051	220.390548370272	114
4	1059	221.52591520605	115
4	1071	224.778571782095	116
4	1083	229.28807462101	117
4	1087	229.326431587005	118
4	1103	234.869178262636	119
4	1107	234.892532618225	120
4	1115	236.570707568089	121
4	1125	238.400246276486	122
4	1133	239.937090933705	123
4	1137	239.980454269531	124
5	42	7.20629433493	0
5	58	12.602424197789	1
5	74	14.30338326393	2
5	134	27.943105794653	3
5	146	29.88906472745	4
5	212	40.452058045075	5
5	224	42.371350073645	6
5	290	51.461663468942	7
5	314	57.422996778355	8
5	368	70.351967081069	9
5	406	79.478244244894	10
5	414	80.553812248477	11
5	422	81.981817544823	12
5	444	90.743791457495	13
5	494	101.105007137193	14
5	502	103.110207633808	15
5	532	115.764972150938	16
5	542	118.318591176716	17
5	562	123.339348629001	18
5	570	125.274296255666	19
5	608	130.450576315777	20
5	616	131.78403747395	21
5	642	136.897412519933	22
5	654	137.992881294938	23
5	662	139.035295072309	24
5	698	146.964687552645	25
5	706	148.82111870658	26
5	740	154.134247472712	27
5	748	155.964393253798	28
5	788	165.806796788453	29
5	806	169.421119514409	30
5	814	171.13678508121	31
5	838	176.597811850517	32
5	856	180.536052669663	33
5	872	184.003947339136	34
5	888	187.177064984234	35
5	896	188.264573594046	36
5	942	197.258048768187	37
5	980	205.32929427603	38
5	992	207.050417485172	39
5	1014	212.187342083176	40
5	1052	220.400548370272	41
5	1088	229.336431587005	42
5	1108	234.902532618225	43

