version 2
run General-2-20231008-00:31:02-8542
attr configname General
attr datetime 20231008-00:31:02
attr experiment General
attr inifile omnetpp.ini
attr iterationvars ""
attr iterationvarsf ""
attr measurement ""
attr network Reliability
attr processid 8542
attr repetition 2
attr replication #2
attr resultdir results
attr runnumber 2
attr seedset 2
param Reliability.node[*].transmissionTime "uniform(1s, 2s)"
param Reliability.node[*].delayTime "uniform(0.01s, 0.2s)"
param Reliability.node[*].processingTime exponential(0.01s)
param Reliability.node[*].lossProbability 0.2

vector 0 Reliability.node[0] txVector ETV
vector 1 Reliability.node[1] txVector ETV
vector 2 Reliability.node[2] txVector ETV
vector 3 Reliability.node[4] txVector ETV
vector 4 Reliability.node[5] rxVector ETV
vector 5 Reliability.node[3] txVector ETV
0	1	0.092839031499	0
0	3	1.277921112972	1
0	11	3.20946197656	2
0	13	4.828732946906	3
0	21	6.128387624183	4
0	23	7.715184603137	5
0	31	9.434938834067	6
0	37	10.940184922907	7
0	45	12.067344894651	8
0	53	13.235168209085	9
0	59	14.622060859594	10
0	67	16.322813203111	11
0	75	17.581546374149	12
0	83	19.125754529628	13
0	91	20.872385942628	14
0	95	22.474203061098	15
0	101	24.43451679104	16
0	109	26.367145351851	17
0	117	27.754035235867	18
0	125	28.966968477955	19
0	133	30.464042273136	20
0	141	31.845735211643	21
0	149	33.262488648547	22
0	151	34.837442186214	23
0	159	36.314285592427	24
0	167	38.232744233235	25
0	171	40.210377624043	26
0	175	42.036627450742	27
0	183	43.874457998684	28
0	189	45.061085142678	29
0	191	46.690444869239	30
0	193	47.985617175017	31
0	201	49.172903719143	32
0	207	50.199287865329	33
0	211	51.704699500482	34
0	217	52.866166067328	35
0	221	54.519186576847	36
0	225	56.33196852847	37
0	227	57.419531037584	38
0	235	58.450120515442	39
0	243	59.808360823216	40
0	251	61.428002284626	41
0	259	63.301129624732	42
0	261	64.465548716039	43
0	263	65.915775895604	44
0	265	67.623747070107	45
0	273	69.401334982152	46
0	277	71.07847472515	47
0	285	72.492934778119	48
0	293	74.320388128534	49
0	301	75.708722306434	50
0	309	77.090384883825	51
0	317	78.966946752295	52
0	319	80.542725751195	53
0	323	81.961633063406	54
0	329	83.82901460493	55
0	331	85.634146145098	56
0	339	87.467307388103	57
0	347	89.333487629909	58
0	349	91.103347286833	59
0	355	92.43409431518	60
0	357	94.370875389799	61
0	359	96.013327815355	62
0	361	97.400228160451	63
0	363	99.255347827933	64
0	371	100.636140408944	65
0	379	102.287232599007	66
0	383	104.126135196555	67
0	389	105.517109458586	68
0	391	106.759446961591	69
0	399	107.966065712757	70
0	405	109.14166478768	71
0	409	110.794571736846	72
0	417	111.957911006659	73
0	425	113.281661591045	74
0	433	114.684456529114	75
0	435	116.307841245336	76
0	437	117.661055141147	77
0	445	118.825833763946	78
0	451	120.025729944948	79
0	457	121.157009167615	80
0	459	122.630902074529	81
0	463	124.205348416716	82
0	471	125.934349220731	83
0	479	127.784779051571	84
0	487	129.736789751119	85
0	495	131.249300549525	86
0	503	132.419986078303	87
0	505	134.215701352359	88
0	513	135.391998362747	89
0	521	136.715526878388	90
0	529	138.489864294204	91
0	535	139.814921097617	92
0	543	141.769209733253	93
0	551	143.400477130452	94
0	559	144.433331063969	95
0	565	146.153547709828	96
0	567	147.351547600722	97
0	575	148.553447103381	98
0	579	149.880841286408	99
0	581	151.340531582732	100
0	589	153.202508040957	101
0	595	154.799524584805	102
0	599	156.089200073873	103
0	601	157.930262667612	104
0	609	158.9660476451	105
0	615	160.266800711416	106
0	619	161.799641603623	107
0	621	163.79895851926	108
0	625	165.507864064323	109
0	627	166.825762560843	110
0	635	168.397771378998	111
0	643	169.701645680489	112
0	647	171.440516531253	113
0	655	172.797026340868	114
0	657	174.440354801733	115
0	659	175.983673444502	116
0	667	177.94506363526	117
0	671	179.322786623165	118
0	679	180.886894433545	119
0	681	182.00893235255	120
0	689	183.888166954759	121
0	691	185.044111472805	122
0	699	186.479203898943	123
0	707	188.169731180201	124
0	715	189.235441856336	125
0	719	191.043408568267	126
0	725	192.619562919967	127
0	727	194.066031029232	128
0	731	195.828461589774	129
0	735	197.266986631339	130
0	743	198.860727001231	131
0	751	199.885765607253	132
0	759	201.549406862835	133
0	767	203.472469592484	134
0	769	204.640522714256	135
0	777	206.384778604627	136
0	785	207.92994001719	137
0	791	209.376224987691	138
0	799	211.023994463745	139
0	807	212.850791944207	140
0	809	214.325097064504	141
0	817	215.61555533462	142
0	825	216.736396084091	143
0	827	217.934491717972	144
0	831	219.284597099543	145
0	839	220.520033821481	146
0	847	221.992902230489	147
0	855	223.723437263881	148
0	857	225.082298862999	149
0	865	226.415945436125	150
0	873	227.632566580567	151
0	881	228.754128181627	152
0	889	229.964081309987	153
0	897	231.303820455	154
0	903	233.240319554946	155
0	911	234.794200203168	156
0	919	236.174766480244	157
0	925	237.983611088266	158
0	927	239.862825576469	159
1	5	1.317434556699	0
1	15	4.841836686562	1
1	25	7.728175378437	2
1	33	9.445613986244	3
1	39	10.959266792173	4
1	47	12.081925192581	5
1	55	13.26094941627	6
1	61	14.665457485175	7
1	69	16.349377203061	8
1	77	17.592402987082	9
1	85	19.141402733687	10
1	93	20.896865932461	11
1	97	22.489754712389	12
1	103	24.456937596761	13
1	111	26.394984270847	14
1	119	27.768529835405	15
1	127	28.982328302715	16
1	135	30.506865642567	17
1	143	31.866059017934	18
1	153	34.852909104283	19
1	161	36.333252546552	20
1	169	38.267720350029	21
1	173	40.230147674632	22
1	177	42.054315940769	23
1	185	43.885629891195	24
1	195	47.996618561746	25
1	203	49.203283538754	26
1	209	50.213368971336	27
1	213	51.735112937622	28
1	219	52.892204876851	29
1	223	54.537080354155	30
1	229	57.43394924187	31
1	237	58.460312192037	32
1	245	59.821791738616	33
1	253	61.444639212469	34
1	267	67.648757525254	35
1	275	69.433035421661	36
1	279	71.107358608589	37
1	287	72.510693498815	38
1	295	74.356411741541	39
1	303	75.7521839041	40
1	311	77.111704036281	41
1	321	80.553436406951	42
1	325	81.987351123802	43
1	333	85.646450265097	44
1	341	87.513803731733	45
1	351	91.115942902049	46
1	365	99.267311746655	47
1	373	100.656387985224	48
1	381	102.30342671427	49
1	385	104.141022307199	50
1	393	106.774970547329	51
1	401	107.988559653943	52
1	407	109.158160615125	53
1	411	110.817593583196	54
1	419	112.012885018042	55
1	427	113.292082798077	56
1	439	117.693419949008	57
1	447	118.847573375837	58
1	453	120.064672335128	59
1	461	122.646285981744	60
1	465	124.216696997814	61
1	473	125.946969956764	62
1	481	127.806599006644	63
1	489	129.75074794533	64
1	497	131.263531444059	65
1	507	134.23496832017	66
1	515	135.404375829083	67
1	523	136.738324300421	68
1	531	138.526426999933	69
1	537	139.824945952704	70
1	545	141.78573324738	71
1	553	143.425885481778	72
1	561	144.455745065552	73
1	569	147.385305551212	74
1	577	148.59679188827	75
1	583	151.353204643604	76
1	591	153.2210133585	77
1	597	154.83039449025	78
1	603	157.946969805271	79
1	611	158.983210753596	80
1	617	160.293216976504	81
1	623	163.816665430468	82
1	629	166.840421410372	83
1	637	168.410023373662	84
1	645	169.731407369749	85
1	649	171.528028555206	86
1	661	176.001814593756	87
1	669	177.962460952254	88
1	673	179.335118246619	89
1	683	182.035536174094	90
1	693	185.058751451377	91
1	701	186.49458462983	92
1	709	188.183547933937	93
1	717	189.248232208935	94
1	721	191.055456451126	95
1	729	194.086152533725	96
1	733	195.839894583588	97
1	737	197.28478407168	98
1	745	198.873758562432	99
1	753	199.900317318107	100
1	761	201.585077180557	101
1	771	204.656042772968	102
1	779	206.407319176101	103
1	787	207.942596149243	104
1	793	209.38688558555	105
1	801	211.049518401794	106
1	811	214.338798970122	107
1	819	215.627907463288	108
1	829	217.950643807531	109
1	833	219.32336190749	110
1	841	220.53983977826	111
1	849	222.003175389381	112
1	859	225.102104157815	113
1	867	226.43189769866	114
1	875	227.642622459543	115
1	883	228.77351637883	116
1	891	230.008301426475	117
1	899	231.324791121757	118
1	905	233.25314434929	119
1	913	234.804742123714	120
1	921	236.202439124542	121
1	929	239.874156892726	122
2	7	1.332888171871	0
2	17	4.868886637503	1
2	27	7.74499224627	2
2	41	10.971774961271	3
2	49	12.102153009399	4
2	57	13.272221897144	5
2	63	14.677907158851	6
2	71	16.374363290295	7
2	79	17.619712526877	8
2	87	19.202319035238	9
2	105	24.473949399136	10
2	121	27.778788665802	11
2	137	30.530275019786	12
2	231	57.468101799711	13
2	247	59.880055206712	14
2	269	67.677626714044	15
2	305	75.762230648389	16
2	335	85.661713036396	17
2	343	87.545058340375	18
2	353	91.127573816095	19
2	387	104.152954808035	20
2	395	106.785884895225	21
2	441	117.706116893476	22
2	455	120.079338714269	23
2	475	125.963961745624	24
2	491	129.760842898441	25
2	509	134.251208493798	26
2	517	135.431248000331	27
2	533	138.536445844254	28
2	547	141.799779301468	29
2	613	158.995532640083	30
2	639	168.451847382251	31
2	651	171.551526324672	32
2	663	176.021394664373	33
2	695	185.077978181791	34
2	703	186.530459105874	35
2	711	188.194608057716	36
2	723	191.065698811418	37
2	739	197.3124818503	38
2	763	201.633513155313	39
2	781	206.418836029072	40
2	803	211.086073513669	41
2	813	214.349532174875	42
2	843	220.552976099591	43
2	851	222.014802083504	44
2	861	225.115082799632	45
2	885	228.792269413941	46
2	893	230.019398067058	47
2	901	231.343566101678	48
2	907	233.273438347407	49
2	915	234.82114014561	50
3	9	1.344565575783	0
3	19	4.880332040244	1
3	29	7.756940050223	2
3	43	10.984263501356	3
3	51	12.127907710607	4
3	65	14.692086792567	5
3	73	16.387567729633	6
3	81	17.634925917986	7
3	89	19.219310934248	8
3	107	24.49201555604	9
3	115	26.415170897392	10
3	123	27.795784482519	11
3	131	29.043720435963	12
3	139	30.556543512389	13
3	147	31.922826140459	14
3	157	34.893531291511	15
3	165	36.385863269331	16
3	181	42.085504168979	17
3	199	48.035343235669	18
3	233	57.478780987805	19
3	241	58.485670954357	20
3	249	59.895997545606	21
3	257	61.475635143146	22
3	271	67.691659494716	23
3	283	71.140784286431	24
3	291	72.541862856064	25
3	299	74.403212560592	26
3	307	75.776478628529	27
3	315	77.171031831886	28
3	337	85.67215390371	29
3	345	87.557082988555	30
3	369	99.29233310183	31
3	377	100.69805887621	32
3	397	106.800203861973	33
3	415	110.84587844121	34
3	423	112.049286980413	35
3	431	113.331393043388	36
3	443	117.722342834891	37
3	469	124.278182347906	38
3	477	125.980260402827	39
3	485	127.841643595715	40
3	493	129.77538839163	41
3	501	131.287482618412	42
3	511	134.265402704188	43
3	519	135.452935726156	44
3	527	136.770018397523	45
3	541	139.854119263692	46
3	549	141.811526132573	47
3	557	143.485301937408	48
3	573	147.437257509476	49
3	587	151.391711327032	50
3	607	157.981372595103	51
3	633	166.879210062607	52
3	641	168.466027516049	53
3	653	171.597524160636	54
3	665	176.039299816583	55
3	677	179.364349574958	56
3	687	182.092616691587	57
3	697	185.107295295207	58
3	705	186.544922388173	59
3	713	188.210319523705	60
3	741	197.337221221081	61
3	749	198.91190828396	62
3	757	199.926643573229	63
3	765	201.648548047861	64
3	775	204.698769791473	65
3	783	206.458712773371	66
3	797	209.418223348556	67
3	805	211.099441589742	68
3	815	214.364597362814	69
3	823	215.672548726877	70
3	837	219.352431297414	71
3	845	220.564974294537	72
3	853	222.044771925233	73
3	863	225.128661797575	74
3	871	226.467779359872	75
3	879	227.671134018011	76
3	887	228.807500852837	77
3	895	230.032977420293	78
3	909	233.292051718913	79
3	917	234.835056258738	80
3	933	239.901038826385	81
4	10	1.354565575783	0
4	20	4.890332040244	1
4	30	7.766940050223	2
4	44	10.994263501356	3
4	52	12.137907710607	4
4	66	14.702086792567	5
4	74	16.397567729633	6
4	90	19.229310934248	7
4	108	24.50201555604	8
4	116	26.425170897392	9
4	124	27.805784482519	10
4	140	30.566543512389	11
4	148	31.932826140459	12
4	158	34.903531291511	13
4	166	36.395863269331	14
4	182	42.095504168979	15
4	200	48.045343235669	16
4	250	59.905997545606	17
4	258	61.485635143146	18
4	272	67.701659494716	19
4	300	74.413212560592	20
4	308	75.786478628529	21
4	316	77.181031831886	22
4	346	87.567082988555	23
4	370	99.30233310183	24
4	398	106.810203861973	25
4	416	110.85587844121	26
4	424	112.059286980413	27
4	432	113.341393043388	28
4	444	117.732342834891	29
4	470	124.288182347906	30
4	478	125.990260402827	31
4	486	127.851643595715	32
4	494	129.78538839163	33
4	502	131.297482618412	34
4	512	134.275402704188	35
4	520	135.462935726156	36
4	528	136.780018397523	37
4	542	139.864119263692	38
4	588	151.401711327032	39
4	608	157.991372595103	40
4	634	166.889210062607	41
4	642	168.476027516049	42
4	654	171.607524160636	43
4	666	176.049299816583	44
4	678	179.374349574958	45
4	688	182.102616691587	46
4	698	185.117295295207	47
4	714	188.220319523705	48
4	750	198.92190828396	49
4	758	199.936643573229	50
4	766	201.658548047861	51
4	806	211.109441589742	52
4	838	219.362431297414	53
4	846	220.574974294537	54
4	854	222.054771925233	55
4	864	225.138661797575	56
4	872	226.477779359872	57
4	880	227.681134018011	58
4	888	228.817500852837	59
4	896	230.042977420293	60
4	910	233.302051718913	61
4	918	234.845056258738	62
4	934	239.911038826385	63
5	35	9.456849155555	0
5	99	22.504164976413	1
5	113	26.405039869331	2
5	129	28.997634274722	3
5	145	31.891484862687	4
5	155	34.87893301504	5
5	163	36.351339012961	6
5	179	42.072254631665	7
5	187	43.898022206041	8
5	197	48.02198006093	9
5	205	49.257946064947	10
5	215	51.757855031541	11
5	239	58.472518996836	12
5	255	61.461724206372	13
5	281	71.130699443885	14
5	289	72.531539639674	15
5	297	74.381097071611	16
5	313	77.132709993835	17
5	327	82.000648115923	18
5	367	99.279329070006	19
5	375	100.682006078899	20
5	403	107.999181680887	21
5	413	110.83481732593	22
5	421	112.027440292271	23
5	429	113.321206009218	24
5	449	118.863312270576	25
5	467	124.24482132657	26
5	483	127.828799376774	27
5	499	131.276451649913	28
5	525	136.753208025069	29
5	539	139.84267563085	30
5	555	143.463077071921	31
5	563	144.470451206631	32
5	571	147.412081739905	33
5	585	151.366305636899	34
5	593	153.242031178025	35
5	605	157.96524476352	36
5	631	166.85111596745	37
5	675	179.350228912147	38
5	685	182.081981975697	39
5	747	198.895686290625	40
5	755	199.914363568908	41
5	773	204.671681873981	42
5	789	207.955871850575	43
5	795	209.405471553059	44
5	821	215.654796080155	45
5	835	219.334274901633	46
5	869	226.456288807011	47
5	877	227.658353807551	48
5	923	236.21866066296	49
5	931	239.886600685789	50

