version 2
run General-4-20231004-20:10:54-11760
attr configname General
attr datetime 20231004-20:10:54
attr experiment General
attr inifile omnetpp.ini
attr iterationvars ""
attr iterationvarsf ""
attr measurement ""
attr network Reliability
attr processid 11760
attr repetition 4
attr replication #4
attr resultdir results
attr runnumber 4
attr seedset 4
param Reliability.node[*].transmissionTime "uniform(1s, 2s)"
param Reliability.node[*].delayTime "uniform(0.01s, 0.2s)"
param Reliability.node[*].processingTime exponential(0.01s)
param Reliability.node[*].lossProbability 0.2

vector 0 Reliability.node[0] txVector ETV
vector 1 Reliability.node[1] txVector ETV
vector 2 Reliability.node[3] txVector ETV
vector 3 Reliability.node[4] txVector ETV
vector 4 Reliability.node[5] rxVector ETV
0	1	0.193735669288	0
0	9	2.094357123985	1
0	15	3.691913329684	2
0	23	5.390333569064	3
0	29	6.962690060879	4
0	33	8.354456256297	5
0	37	9.966981599493	6
0	45	11.610895862723	7
0	49	13.555899707521	8
0	51	14.9972482409	9
0	55	16.062957779658	10
0	63	17.928840534682	11
0	67	19.764097242071	12
0	69	20.799855430298	13
0	77	22.028618100485	14
0	85	23.26965670559	15
0	87	24.408407909948	16
0	95	25.985404878774	17
0	103	27.068573973527	18
0	107	28.30471529594	19
0	111	29.430896956626	20
0	119	31.116485159997	21
0	127	32.814650764842	22
0	135	34.661373036601	23
0	143	35.741352276564	24
0	149	37.548368822936	25
0	153	39.492319496036	26
0	161	41.084193141818	27
0	163	42.604867543247	28
0	171	43.911880214852	29
0	179	45.743015647554	30
0	183	47.680307127689	31
0	191	49.161767071034	32
0	199	51.129446700369	33
0	207	52.500552883293	34
0	213	53.693791961219	35
0	221	55.630926466701	36
0	223	56.634847363844	37
0	227	58.09717672613	38
0	235	59.405971290698	39
0	237	61.337660311876	40
0	245	62.427802034343	41
0	251	63.657698934354	42
0	253	65.320001369497	43
0	257	66.903544901094	44
0	265	68.807921522918	45
0	273	70.422740971825	46
0	275	71.914528609409	47
0	283	73.845942876923	48
0	291	75.65677999255	49
0	293	77.554871770243	50
0	301	78.694053569731	51
0	303	80.010330075553	52
0	309	81.764185525399	53
0	317	82.991166544767	54
0	325	84.298583157282	55
0	333	85.562843666566	56
0	337	86.84335616712	57
0	339	88.571084838514	58
0	347	90.260870132516	59
0	351	92.212840553061	60
0	359	93.526207179217	61
0	361	94.629002419686	62
0	365	95.72308306225	63
0	373	96.918030749926	64
0	381	98.295875766001	65
0	387	100.286539479777	66
0	395	101.901901494631	67
0	399	103.1372795649	68
0	403	105.108982886107	69
0	411	106.394227479737	70
0	413	108.149876768853	71
0	421	109.401375234978	72
0	429	110.42677693643	73
0	431	111.611238307705	74
0	439	112.719229500893	75
0	447	114.012090261247	76
0	455	115.112640492072	77
0	457	116.501690823039	78
0	465	117.613565139392	79
0	467	119.449439676864	80
0	471	120.978512059584	81
0	477	122.041078965332	82
0	485	123.390810063028	83
0	487	124.555971837987	84
0	489	125.846811691218	85
0	491	127.592639255256	86
0	495	129.544307847426	87
0	503	130.864672500093	88
0	509	132.399692666635	89
0	515	133.801391755149	90
0	523	135.108796642546	91
0	525	136.973891098669	92
0	527	138.704106429976	93
0	535	140.30060970682	94
0	541	141.921178957134	95
0	549	143.705789692852	96
0	557	144.970705415973	97
0	563	146.461641576293	98
0	571	147.494701043855	99
0	577	149.469681001421	100
0	585	151.036161035685	101
0	593	152.415439750221	102
0	599	154.265504885618	103
0	607	155.924540412765	104
0	615	157.567479811994	105
0	617	158.568835683319	106
0	623	160.108283876361	107
0	629	161.321996935097	108
0	635	162.566796209583	109
0	643	163.937033505332	110
0	651	165.094126972756	111
0	659	166.752203687247	112
0	667	168.620448265145	113
0	675	169.821430568504	114
0	681	171.109848285946	115
0	689	172.45021444784	116
0	697	173.694896377777	117
0	699	175.565846426799	118
0	707	177.531375736618	119
0	715	179.449559037961	120
0	723	181.202624582374	121
0	731	182.986198468521	122
0	739	184.26678828538	123
0	747	186.057292626627	124
0	755	187.761557756379	125
0	763	189.034450272718	126
0	771	190.915487508677	127
0	779	192.768301055223	128
0	787	194.092022068721	129
0	795	195.98888810367	130
0	803	197.823734068234	131
0	805	199.388591173493	132
0	811	200.507736069771	133
0	813	201.605771915211	134
0	821	203.265630164572	135
0	827	205.180891928884	136
0	831	206.412591457522	137
0	839	207.470203259882	138
0	847	209.277941213144	139
0	853	211.272432873879	140
0	855	212.529268295892	141
0	859	214.390591628306	142
0	863	215.575857908154	143
0	871	216.672708330598	144
0	875	218.068093268821	145
0	883	219.890406211061	146
0	885	220.923833071176	147
0	893	222.028754538545	148
0	901	223.375961950203	149
0	903	224.42530410566	150
0	911	226.409546045275	151
0	919	227.998992421818	152
0	927	229.770690528364	153
0	935	231.012650280879	154
0	943	232.61933876636	155
0	951	233.919400607623	156
0	959	235.623896964747	157
0	965	236.846147690588	158
0	973	238.134270500779	159
0	975	239.248350298652	160
1	3	0.205631491707	0
1	11	2.105882392658	1
1	17	3.725262194422	2
1	25	5.4048198478	3
1	31	6.98940041518	4
1	35	8.367555175697	5
1	39	9.993644968626	6
1	47	11.626808073892	7
1	53	15.009182404491	8
1	57	16.09150656923	9
1	65	17.941864730447	10
1	71	20.812227608552	11
1	79	22.043324033456	12
1	89	24.422741521726	13
1	97	25.998320569734	14
1	105	27.095229027635	15
1	109	28.315502550762	16
1	113	29.470285567365	17
1	121	31.130891520525	18
1	129	32.837872366994	19
1	137	34.671829789006	20
1	145	35.752410109581	21
1	151	37.560146602545	22
1	155	39.532348003521	23
1	165	42.632774057151	24
1	173	43.937333263305	25
1	181	45.755709507808	26
1	185	47.716536217346	27
1	193	49.175632753574	28
1	201	51.140919246704	29
1	209	52.510582192157	30
1	215	53.710776535223	31
1	225	56.646419310745	32
1	229	58.121168985566	33
1	239	61.349833227828	34
1	247	62.438177615494	35
1	255	65.342979188151	36
1	259	66.913713490881	37
1	267	68.819368840562	38
1	277	71.952000756687	39
1	285	73.863194864365	40
1	295	77.577948620319	41
1	305	80.023604454414	42
1	311	81.789056472812	43
1	319	83.060704333021	44
1	327	84.31407130464	45
1	335	85.586676336627	46
1	341	88.587092719157	47
1	349	90.271036342362	48
1	353	92.269009863901	49
1	363	94.642092121346	50
1	367	95.738094065154	51
1	375	96.933001095814	52
1	383	98.319629248613	53
1	389	100.298711481734	54
1	397	101.917106201411	55
1	401	103.147728728008	56
1	405	105.122136352756	57
1	415	108.179779881943	58
1	423	109.41284117191	59
1	433	111.622187926081	60
1	441	112.75515715212	61
1	449	114.027820303981	62
1	459	116.519682017982	63
1	469	119.464767680685	64
1	473	120.990693923088	65
1	479	122.053106493797	66
1	493	127.613509697796	67
1	497	129.56133699173	68
1	505	130.878160178428	69
1	511	132.425692199143	70
1	517	133.812828982185	71
1	529	138.730989422593	72
1	537	140.31132433853	73
1	543	141.931217758691	74
1	551	143.737109815279	75
1	559	144.994200802518	76
1	565	146.473960430599	77
1	573	147.507162168019	78
1	579	149.507895829257	79
1	587	151.047364163196	80
1	595	152.432218709515	81
1	601	154.278685535786	82
1	609	155.935723417135	83
1	619	158.583270981083	84
1	625	160.142233345997	85
1	631	161.356160779089	86
1	637	162.582105070115	87
1	645	163.948339718183	88
1	653	165.110754216634	89
1	661	166.775828273841	90
1	669	168.68005416347	91
1	677	169.845430003124	92
1	683	171.120658989677	93
1	691	172.476106527375	94
1	701	175.583195741456	95
1	709	177.544822406418	96
1	717	179.468710257602	97
1	725	181.220181913126	98
1	733	183.002193112502	99
1	741	184.289563550448	100
1	749	186.092946853833	101
1	757	187.77738203822	102
1	765	189.048227560799	103
1	773	190.943322528973	104
1	781	192.778867573614	105
1	789	194.120830960528	106
1	797	196.000482814143	107
1	807	199.398793828963	108
1	815	201.624299955515	109
1	823	203.276273125477	110
1	829	205.212933439491	111
1	833	206.433248100364	112
1	841	207.483596674006	113
1	849	209.304557933731	114
1	857	212.541726702668	115
1	861	214.401064368852	116
1	865	215.592476098967	117
1	873	216.685549249683	118
1	877	218.098901888571	119
1	887	220.936430158243	120
1	895	222.051289709145	121
1	905	224.460637534996	122
1	913	226.429791166616	123
1	921	228.023867154958	124
1	929	229.781323974239	125
1	937	231.058767309918	126
1	945	232.63419002653	127
1	953	233.930115942668	128
1	961	235.645471434142	129
1	967	236.86083220865	130
1	977	239.264616031905	131
2	5	0.234984622813	0
2	13	2.118424942046	1
2	19	3.745285123319	2
2	27	5.424086590776	3
2	41	10.003837049027	4
2	59	16.127429682974	5
2	73	20.824220909537	6
2	81	22.063338816049	7
2	91	24.439047948111	8
2	99	26.008806229325	9
2	115	29.48407876855	10
2	123	31.164385781792	11
2	131	32.859878186789	12
2	139	34.682830181299	13
2	147	35.763074193621	14
2	157	39.546917214029	15
2	167	42.669276861928	16
2	175	43.959033619372	17
2	187	47.728489166607	18
2	195	49.207330538835	19
2	203	51.152112830739	20
2	211	52.541521074641	21
2	217	53.734539770123	22
2	231	58.145248636135	23
2	241	61.368076463349	24
2	249	62.449059180353	25
2	261	66.946413881465	26
2	269	68.835754825664	27
2	279	71.968931457606	28
2	287	73.879922216412	29
2	297	77.59628063227	30
2	307	80.034877978921	31
2	313	81.814552074387	32
2	321	83.074194697204	33
2	329	84.345033349528	34
2	343	88.603717039403	35
2	355	92.30055516949	36
2	369	95.76367450553	37
2	377	96.946601721867	38
2	385	98.330505550288	39
2	391	100.31350530469	40
2	407	105.138351127191	41
2	417	108.19863833154	42
2	425	109.430746695759	43
2	435	111.639685406281	44
2	443	112.767147438187	45
2	451	114.051180533138	46
2	461	116.545384217809	47
2	475	121.006742159112	48
2	481	122.083464639129	49
2	499	129.572287514062	50
2	507	130.896676535075	51
2	513	132.440086891522	52
2	519	133.844812178296	53
2	531	138.751933337887	54
2	539	140.344272926155	55
2	545	141.968329704436	56
2	553	143.778753633003	57
2	561	145.011232785996	58
2	567	146.502352357269	59
2	575	147.550809452587	60
2	581	149.518940541647	61
2	589	151.057869991037	62
2	597	152.481560136751	63
2	603	154.299054548165	64
2	611	155.95009068516	65
2	621	158.600565112303	66
2	627	160.17082702665	67
2	633	161.383267850053	68
2	639	162.638595244511	69
2	647	163.959398629608	70
2	655	165.125826667744	71
2	663	166.792992358274	72
2	671	168.695314927942	73
2	679	169.863527718021	74
2	685	171.131252046324	75
2	693	172.48611433937	76
2	703	175.607096092216	77
2	711	177.556036555007	78
2	719	179.479152707793	79
2	727	181.235080573907	80
2	735	183.014051804892	81
2	743	184.306318736815	82
2	751	186.10924704462	83
2	759	187.824570022985	84
2	767	189.058628733764	85
2	775	190.955766444741	86
2	783	192.800322701	87
2	791	194.133915183449	88
2	799	196.025949697756	89
2	809	199.41836813351	90
2	817	201.637001552334	91
2	825	203.288699705604	92
2	835	206.461588864517	93
2	843	207.513166709476	94
2	851	209.314715767728	95
2	867	215.602935812702	96
2	879	218.119920092127	97
2	889	220.961140850544	98
2	897	222.071990250464	99
2	907	224.47353243494	100
2	915	226.452385153863	101
2	923	228.066882982615	102
2	931	229.793763087505	103
2	939	231.074179640901	104
2	947	232.653907607343	105
2	955	233.97571976513	106
2	963	235.664332398159	107
2	969	236.877960967802	108
2	979	239.283983137833	109
3	7	0.254376010482	0
3	21	3.755336848361	1
3	43	10.014242981339	2
3	61	16.157855494117	3
3	75	20.838020582402	4
3	83	22.075862383885	5
3	93	24.453491562273	6
3	101	26.045314423319	7
3	117	29.514975471388	8
3	125	31.179108555445	9
3	133	32.880949971756	10
3	141	34.695281904028	11
3	159	39.557135772061	12
3	169	42.680657252541	13
3	177	43.979544451686	14
3	189	47.74015004601	15
3	197	49.225213404694	16
3	205	51.162863118991	17
3	219	53.751237418871	18
3	233	58.18019963745	19
3	243	61.378181277454	20
3	263	66.963423678879	21
3	271	68.855821617191	22
3	281	71.984201608784	23
3	289	73.910354635007	24
3	299	77.628443581478	25
3	315	81.835071033823	26
3	323	83.095224281951	27
3	331	84.364115530751	28
3	345	88.618912568095	29
3	357	92.310756608415	30
3	371	95.774596870835	31
3	379	96.962904055493	32
3	393	100.352962758314	33
3	409	105.15388136729	34
3	419	108.220953308979	35
3	427	109.443782672605	36
3	437	111.651970879707	37
3	445	112.787379543908	38
3	453	114.078789425404	39
3	463	116.617623191306	40
3	483	122.09780958189	41
3	501	129.592292135679	42
3	521	133.860033670341	43
3	533	138.763529106693	44
3	547	141.980787637447	45
3	555	143.791511547883	46
3	569	146.531072917821	47
3	583	149.561538349163	48
3	591	151.070040502023	49
3	605	154.311827188739	50
3	613	155.967660651056	51
3	641	162.650074768672	52
3	649	163.983075287491	53
3	657	165.141478715219	54
3	665	166.816679584027	55
3	673	168.716449581929	56
3	687	171.14469971224	57
3	695	172.541632903635	58
3	705	175.61847389049	59
3	713	177.576514754856	60
3	721	179.507642897162	61
3	729	181.253589499472	62
3	737	183.027718267156	63
3	745	184.321328955303	64
3	753	186.124565271216	65
3	761	187.838190928028	66
3	769	189.079668125738	67
3	777	190.972639244815	68
3	785	192.818491127073	69
3	793	194.153267543024	70
3	801	196.04318212931	71
3	819	201.655495520937	72
3	837	206.482155648114	73
3	845	207.524239950735	74
3	869	215.635381400773	75
3	881	218.149811007836	76
3	891	220.972427268031	77
3	899	222.096928715142	78
3	909	224.484182337271	79
3	917	226.463298962032	80
3	925	228.081675764023	81
3	933	229.819836808386	82
3	941	231.108265840112	83
3	949	232.66975708846	84
3	957	233.987868207527	85
3	971	236.892936411197	86
3	981	239.324584330943	87
4	8	0.264376010482	0
4	44	10.024242981339	1
4	62	16.167855494117	2
4	76	20.848020582402	3
4	84	22.085862383885	4
4	94	24.463491562273	5
4	102	26.055314423319	6
4	118	29.524975471388	7
4	126	31.189108555445	8
4	142	34.705281904028	9
4	170	42.690657252541	10
4	178	43.989544451686	11
4	198	49.235213404694	12
4	206	51.172863118991	13
4	220	53.761237418871	14
4	234	58.19019963745	15
4	244	61.388181277454	16
4	264	66.973423678879	17
4	282	71.994201608784	18
4	290	73.920354635007	19
4	316	81.845071033823	20
4	324	83.105224281951	21
4	332	84.374115530751	22
4	346	88.628912568095	23
4	358	92.320756608415	24
4	372	95.784596870835	25
4	380	96.972904055493	26
4	394	100.362962758314	27
4	410	105.16388136729	28
4	420	108.230953308979	29
4	428	109.453782672605	30
4	438	111.661970879707	31
4	446	112.797379543908	32
4	454	114.088789425404	33
4	464	116.627623191306	34
4	484	122.10780958189	35
4	522	133.870033670341	36
4	548	141.990787637447	37
4	556	143.801511547883	38
4	570	146.541072917821	39
4	584	149.571538349163	40
4	606	154.321827188739	41
4	614	155.977660651056	42
4	658	165.151478715219	43
4	674	168.726449581929	44
4	688	171.15469971224	45
4	722	179.517642897162	46
4	730	181.263589499472	47
4	738	183.037718267156	48
4	746	184.331328955303	49
4	754	186.134565271216	50
4	762	187.848190928028	51
4	778	190.982639244815	52
4	786	192.828491127073	53
4	794	194.163267543024	54
4	820	201.665495520937	55
4	838	206.492155648114	56
4	846	207.534239950735	57
4	870	215.645381400773	58
4	882	218.159811007836	59
4	900	222.106928715142	60
4	910	224.494182337271	61
4	926	228.091675764023	62
4	934	229.829836808386	63
4	942	231.118265840112	64
4	950	232.67975708846	65
4	958	233.997868207527	66
4	972	236.902936411197	67

