version 2
run General-0-20231004-17:43:06-7874
attr configname General
attr datetime 20231004-17:43:06
attr experiment General
attr inifile omnetpp.ini
attr iterationvars ""
attr iterationvarsf ""
attr measurement ""
attr network Multihop
attr processid 7874
attr repetition 0
attr replication #0
attr resultdir results
attr runnumber 0
attr seedset 0
param Multihop.node[*].transmissionTime "uniform(1s, 2s)"
param Multihop.node[*].delayTime "uniform(0.01s, 0.2s)"
param Multihop.node[*].processingTime exponential(0.01s)
param Multihop.node[*].lossProbability 0.25

vector 0 Multihop.node[0] txVector ETV
vector 1 Multihop.node[1] txVector ETV
vector 2 Multihop.node[2] txVector ETV
vector 3 Multihop.node[3] txVector ETV
vector 4 Multihop.node[4] txVector ETV
vector 5 Multihop.node[5] rxVector ETV
0	1	0.114274565438	0
0	11	1.707119181827	1
0	21	3.09150089005	2
0	29	4.903669616515	3
0	31	6.241065778146	4
0	33	7.889237654703	5
0	43	9.257479192065	6
0	49	11.058389944564	7
0	53	12.779022596152	8
0	63	14.316395824383	9
0	69	16.053314002304	10
0	79	17.377455006427	11
0	87	18.827404995988	12
0	93	20.797214064588	13
0	95	22.155366234788	14
0	105	23.906052373656	15
0	107	25.865001642917	16
0	109	27.517791961859	17
0	111	29.152850838917	18
0	119	31.148150404523	19
0	121	32.771660510524	20
0	123	34.109668128033	21
0	127	35.784420450291	22
0	129	37.562765932016	23
0	135	39.512336983418	24
0	139	41.13518307668	25
0	149	43.10712807563	26
0	151	44.127115747965	27
0	155	45.568826669435	28
0	159	46.928271138416	29
0	165	48.616932324673	30
0	175	49.83375445784	31
0	185	51.75491206984	32
0	191	53.402086208416	33
0	195	54.799906960064	34
0	199	55.964847420649	35
0	209	57.111289183916	36
0	217	58.867395875351	37
0	227	60.758950306177	38
0	237	62.525974008795	39
0	247	64.491390227415	40
0	253	65.88625951957	41
0	263	67.356391707976	42
0	265	69.234843899105	43
0	275	70.337707259069	44
0	285	72.306669025059	45
0	293	74.290711260476	46
0	301	75.390280345297	47
0	305	77.294928089558	48
0	309	78.803243539837	49
0	319	80.582294558017	50
0	329	82.564869514741	51
0	333	83.581497484194	52
0	339	85.346409182139	53
0	343	86.685812998172	54
0	345	88.024798114626	55
0	347	89.204288382624	56
0	351	90.375274975394	57
0	359	92.249847937451	58
0	361	94.033492185484	59
0	367	95.533518479281	60
0	377	97.525914874934	61
0	383	99.490404640632	62
0	385	100.712847864097	63
0	393	101.931597231962	64
0	397	103.612141926149	65
0	407	104.668560260749	66
0	409	106.211059037671	67
0	411	108.06567262074	68
0	421	109.809507163083	69
0	423	111.279004350612	70
0	429	112.735018974012	71
0	439	113.964238297036	72
0	449	115.483949489268	73
0	455	117.163828944164	74
0	463	118.952568365569	75
0	467	120.910019221558	76
0	469	122.621603043127	77
0	479	123.7752973466	78
0	483	125.582877611584	79
0	487	127.257724956685	80
0	495	128.432633828913	81
0	497	129.63749959048	82
0	507	130.802458461915	83
0	511	131.895054620533	84
0	521	133.644309037207	85
0	523	135.321572343894	86
0	525	136.384610636468	87
0	535	137.94025987371	88
0	537	139.121891079313	89
0	547	140.634284544811	90
0	549	142.089453362003	91
0	559	143.968323100898	92
0	567	145.466463329345	93
0	571	147.440721997367	94
0	581	149.221148646511	95
0	583	150.631640788009	96
0	587	152.059864614931	97
0	591	153.460996956405	98
0	593	155.441696629933	99
0	603	156.847817117422	100
0	607	158.207088534561	101
0	611	159.508919408851	102
0	613	161.435132341533	103
0	615	162.760442650718	104
0	619	164.71331332189	105
0	623	166.246778998132	106
0	625	168.129638996515	107
0	627	169.380261716274	108
0	631	171.057673540739	109
0	641	172.489821588462	110
0	643	173.745961171416	111
0	645	175.337896335245	112
0	655	176.814373539136	113
0	661	178.667008462669	114
0	665	180.176350528448	115
0	675	181.836390390135	116
0	683	182.90624940752	117
0	687	184.685441378345	118
0	691	186.400620127171	119
0	701	187.87011843252	120
0	703	189.345407876959	121
0	713	191.129055844694	122
0	715	192.668279441613	123
0	721	193.993964208131	124
0	731	195.123376545803	125
0	741	196.92375500461	126
0	749	198.503952112355	127
1	3	0.142870607559	0
1	13	1.720650773218	1
1	23	3.108039715722	2
1	35	7.93073935399	3
1	45	9.274828836277	4
1	51	11.077113156514	5
1	55	12.803236242953	6
1	65	14.32883630929	7
1	71	16.064935367198	8
1	81	17.396949952262	9
1	89	18.847993337303	10
1	97	22.174726850386	11
1	113	29.171569997453	12
1	125	34.123483686467	13
1	131	37.583628625825	14
1	137	39.533535127076	15
1	141	41.166236289688	16
1	153	44.176031449193	17
1	157	45.585383132279	18
1	161	46.959513510386	19
1	167	48.635260759834	20
1	177	49.844622162663	21
1	187	51.783324894555	22
1	193	53.420134182414	23
1	197	54.814524269024	24
1	201	55.98327825097	25
1	211	57.126332621982	26
1	219	58.888791954986	27
1	229	60.774257531143	28
1	239	62.544852622899	29
1	249	64.51103476307	30
1	255	65.908849954743	31
1	267	69.245813126651	32
1	277	70.35157855999	33
1	287	72.319684684191	34
1	295	74.305054717035	35
1	303	75.400663174426	36
1	307	77.306753475577	37
1	311	78.833263404792	38
1	321	80.596967283681	39
1	331	82.577492807833	40
1	335	83.620343601715	41
1	341	85.363133787307	42
1	349	89.220514356064	43
1	353	90.414120418278	44
1	363	94.044009014542	45
1	369	95.546628157331	46
1	379	97.543994675468	47
1	387	100.731277651851	48
1	395	101.942488774862	49
1	399	103.628833063386	50
1	413	108.082184928059	51
1	425	111.31269353232	52
1	431	112.766354606887	53
1	441	113.974238850555	54
1	451	115.500039935395	55
1	457	117.176435345458	56
1	465	118.968950251625	57
1	471	122.644712766809	58
1	481	123.799044146138	59
1	485	125.596119602719	60
1	489	127.279914950137	61
1	499	129.648832996713	62
1	509	130.814910442841	63
1	513	131.918210883116	64
1	527	136.394703466712	65
1	539	139.140576736628	66
1	551	142.106231382024	67
1	561	143.996937417328	68
1	569	145.496290818391	69
1	573	147.492740591629	70
1	585	150.645176753762	71
1	589	152.071150417304	72
1	595	155.460117992961	73
1	605	156.86291702576	74
1	609	158.232014856203	75
1	617	162.77058311663	76
1	621	164.726945744079	77
1	629	169.406891374081	78
1	633	171.081622231652	79
1	647	175.354589363965	80
1	657	176.830055243973	81
1	663	178.67791183511	82
1	667	180.188664738168	83
1	677	181.846487744228	84
1	685	182.942173893608	85
1	689	184.702190888082	86
1	693	186.432051124175	87
1	705	189.363536860571	88
1	717	192.679869561781	89
1	723	194.012613589225	90
1	733	195.154342908538	91
1	743	196.946351416316	92
2	5	0.172386060918	0
2	15	1.731234619909	1
2	25	3.123028435812	2
2	37	7.942251662527	3
2	47	9.296188225694	4
2	57	12.814355704559	5
2	67	14.340289089563	6
2	73	16.077449786519	7
2	83	17.430213462879	8
2	91	18.859867597963	9
2	99	22.188657975959	10
2	115	29.186920644224	11
2	133	37.593765271609	12
2	143	41.183362125621	13
2	163	46.994552628217	14
2	169	48.665293165059	15
2	179	49.857875566818	16
2	189	51.796400071793	17
2	203	56.005443337504	18
2	213	57.158969957741	19
2	221	58.904755748929	20
2	231	60.795510351311	21
2	241	62.56563097174	22
2	251	64.527475810153	23
2	257	65.922246602069	24
2	269	69.260183406789	25
2	279	70.36407937494	26
2	289	72.337385452786	27
2	297	74.321389343212	28
2	313	78.848563433573	29
2	323	80.612415854962	30
2	337	83.644206515235	31
2	355	90.433491805455	32
2	365	94.066018723607	33
2	371	95.567994122284	34
2	381	97.556382204196	35
2	389	100.747294441716	36
2	401	103.660119764331	37
2	415	108.103488483518	38
2	427	111.324169492649	39
2	433	112.799833044501	40
2	443	113.987976483493	41
2	453	115.516644966192	42
2	459	117.207662811997	43
2	473	122.665104823175	44
2	491	127.296135319328	45
2	501	129.671637240253	46
2	515	131.928677760552	47
2	529	136.422603362757	48
2	541	139.16606685342	49
2	553	142.12880375198	50
2	563	144.009098379494	51
2	575	147.516747348599	52
2	597	155.474327925941	53
2	635	171.109318429884	54
2	649	175.370723754861	55
2	659	176.857592390423	56
2	669	180.21745592251	57
2	679	181.878748584122	58
2	695	186.448753442941	59
2	707	189.375278812175	60
2	719	192.691611548947	61
2	725	194.023581563948	62
2	735	195.165324103764	63
2	745	196.95662583732	64
3	7	0.20117570146	0
3	17	1.744418181317	1
3	27	3.151112128455	2
3	39	7.972660584686	3
3	59	12.830772651579	4
3	75	16.092335357012	5
3	85	17.441259075137	6
3	101	22.199049807523	7
3	117	29.20335845424	8
3	145	41.193935394885	9
3	171	48.682405644431	10
3	181	49.867969574325	11
3	205	56.018846804886	12
3	215	57.179156545041	13
3	223	58.953185814761	14
3	233	60.808384456072	15
3	243	62.583249649453	16
3	259	65.937082958935	17
3	271	69.278208926647	18
3	281	70.375602311193	19
3	291	72.353326187769	20
3	299	74.349786671063	21
3	315	78.860071343675	22
3	325	80.622934980484	23
3	357	90.452571445728	24
3	373	95.597965841959	25
3	391	100.792439228521	26
3	403	103.707586710469	27
3	417	108.122829086844	28
3	435	112.820211545256	29
3	445	114.003518191783	30
3	461	117.221427105512	31
3	475	122.677524019623	32
3	493	127.324487953357	33
3	503	129.681946503169	34
3	517	131.941024319045	35
3	531	136.474163073713	36
3	543	139.185392971973	37
3	555	142.145462176846	38
3	565	144.033940804321	39
3	577	147.526787911812	40
3	599	155.499880869545	41
3	637	171.12408321571	42
3	651	175.388159586779	43
3	671	180.238892828716	44
3	681	181.890181114336	45
3	697	186.464107486452	46
3	709	189.38683166803	47
3	727	194.057721728253	48
3	737	195.180880692896	49
3	747	196.979771058301	50
4	9	0.220945765724	0
4	19	1.7609126448	1
4	41	7.989077676413	2
4	61	12.842834684399	3
4	77	16.125624490754	4
4	103	22.219108517575	5
4	147	41.209934863751	6
4	173	48.717261468001	7
4	183	49.896442850835	8
4	207	56.034525846421	9
4	225	58.964421081235	10
4	235	60.822141844496	11
4	245	62.59587022187	12
4	261	65.960912751	13
4	273	69.288550960831	14
4	283	70.386625517342	15
4	317	78.870409211531	16
4	327	80.637484098932	17
4	375	95.621862612597	18
4	405	103.727201106185	19
4	419	108.145371119545	20
4	437	112.834137275538	21
4	447	114.035175828592	22
4	477	122.689587599559	23
4	505	129.705689933313	24
4	519	131.954405866193	25
4	533	136.496319978447	26
4	545	139.197857130195	27
4	557	142.167790981476	28
4	579	147.539927890793	29
4	601	155.515180485338	30
4	639	171.135098556549	31
4	653	175.403993824489	32
4	673	180.250857447575	33
4	699	186.476020446911	34
4	711	189.40731455908	35
4	729	194.068587898197	36
4	739	195.197290428349	37
5	10	0.230945765724	0
5	20	1.7709126448	1
5	42	7.999077676413	2
5	62	12.852834684399	3
5	78	16.135624490754	4
5	104	22.229108517575	5
5	148	41.219934863751	6
5	226	58.974421081235	7
5	236	60.832141844496	8
5	246	62.60587022187	9
5	262	65.970912751	10
5	274	69.298550960831	11
5	284	70.396625517342	12
5	328	80.647484098932	13
5	376	95.631862612597	14
5	420	108.155371119545	15
5	438	112.844137275538	16
5	478	122.699587599559	17
5	506	129.715689933313	18
5	534	136.506319978447	19
5	546	139.207857130195	20
5	558	142.177790981476	21
5	580	147.549927890793	22
5	602	155.525180485338	23
5	640	171.145098556549	24
5	654	175.413993824489	25
5	674	180.260857447575	26
5	700	186.486020446911	27
5	712	189.41731455908	28
5	730	194.078587898197	29
5	740	195.207290428349	30

