version 2
run General-2-20231007-21:33:18-5989
attr configname General
attr datetime 20231007-21:33:18
attr experiment General
attr inifile omnetpp.ini
attr iterationvars ""
attr iterationvarsf ""
attr measurement ""
attr network Reliability
attr processid 5989
attr repetition 2
attr replication #2
attr resultdir results
attr runnumber 2
attr seedset 2
param Reliability.node[*].transmissionTime "uniform(1s, 2s)"
param Reliability.node[*].delayTime "uniform(0.01s, 0.2s)"
param Reliability.node[*].processingTime exponential(0.01s)
param Reliability.node[*].lossProbability 0.2

vector 0 Reliability.node[0] txVector ETV
vector 1 Reliability.node[1] txVector ETV
vector 2 Reliability.node[2] txVector ETV
vector 3 Reliability.node[4] txVector ETV
vector 4 Reliability.node[5] rxVector ETV
vector 5 Reliability.node[3] txVector ETV
0	1	0.092839031499	0
0	3	1.277921112972	1
0	11	3.20946197656	2
0	13	4.828732946906	3
0	29	6.128387624183	4
0	35	8.098020031833	5
0	37	9.279747069132	6
0	45	10.77403683706	7
0	53	12.241824322164	8
0	57	13.854854015883	9
0	59	15.017152619099	10
0	83	16.717904962616	11
0	85	18.149442732584	12
0	97	20.037746479053	13
0	105	21.394370759388	14
0	117	22.948004605265	15
0	129	24.530689494235	16
0	131	25.872601099561	17
0	151	27.254294038068	18
0	153	29.052879693236	19
0	161	30.596224926196	20
0	171	32.491370664926	21
0	181	34.329201212868	22
0	185	36.181490173114	23
0	187	37.810849899675	24
0	189	39.106022205453	25
0	209	40.293308749579	26
0	215	42.013656773621	27
0	219	43.826438725244	28
0	221	44.914001234358	29
0	229	45.944590712216	30
0	237	47.30283101999	31
0	253	48.9224724814	32
0	257	50.108062217495	33
0	265	51.88565012954	34
0	269	53.562789872538	35
0	277	54.977249925507	36
0	285	56.804703275922	37
0	293	58.193037453822	38
0	309	59.574700031213	39
0	317	60.706094638694	40
0	321	61.986954629205	41
0	329	63.82011587221	42
0	337	65.686296114016	43
0	339	67.45615577094	44
0	345	68.786902799287	45
0	347	70.723683873906	46
0	349	72.366136299462	47
0	351	73.753036644558	48
0	353	75.60815631204	49
0	361	76.988948893051	50
0	369	78.640041083114	51
0	373	80.478943680662	52
0	379	81.869917942693	53
0	381	83.112255445698	54
0	389	84.318874196864	55
0	395	85.494473271787	56
0	399	87.147380220953	57
0	407	88.310719490766	58
0	417	89.634470075152	59
0	433	91.585980226767	60
0	439	92.785876407769	61
0	445	93.917155630436	62
0	447	95.39104853735	63
0	451	96.965494879537	64
0	463	98.694495683552	65
0	479	100.006883528798	66
0	483	101.260431799588	67
0	489	102.767203638346	68
0	493	104.537037828255	69
0	501	106.472191389201	70
0	509	107.674552056256	71
0	517	108.98608146074	72
0	521	110.63757530066	73
0	523	112.478698254347	74
0	531	114.432986889983	75
0	539	116.064254287182	76
0	547	117.097108220699	77
0	553	118.817324866558	78
0	555	120.015324757452	79
0	563	121.217224260111	80
0	567	122.544618443138	81
0	569	124.004308739462	82
0	577	125.866285197687	83
0	583	127.463301741535	84
0	587	128.752977230603	85
0	589	130.594039824342	86
0	597	131.62982480183	87
0	603	132.930577868146	88
0	607	134.463418760353	89
0	609	136.46273567599	90
0	613	138.171641221053	91
0	615	139.489539717573	92
0	635	141.061548535728	93
0	643	143.061118310799	94
0	645	144.604436953568	95
0	659	146.565827144326	96
0	665	148.112641069123	97
0	673	149.173794833261	98
0	675	150.975823834555	99
0	691	152.132408882275	100
0	699	153.19811955841	101
0	703	155.006086270341	102
0	709	156.582240622041	103
0	711	158.028708731306	104
0	715	159.791139291848	105
0	719	161.229664333413	106
0	727	162.823404703305	107
0	743	163.848443309327	108
0	751	165.690310940395	109
0	757	166.719275917874	110
0	769	168.260244014922	111
0	777	169.493508375499	112
0	779	171.069752074562	113
0	787	172.636014652688	114
0	799	174.099324428959	115
0	807	175.22016517843	116
0	809	176.418260812311	117
0	813	177.768366193882	118
0	825	179.00380291582	119
0	831	180.3101261398	120
0	839	181.587779208104	121
0	851	183.077523062256	122
0	853	184.77710974451	123
0	857	186.424950396659	124
0	883	188.188150619406	125
0	891	189.742031267628	126
0	899	191.122597544704	127
0	905	192.931442152726	128
0	907	194.810656640929	129
0	915	196.555532897374	130
0	919	198.413309226761	131
0	925	200.239414701954	132
0	931	201.392835491354	133
0	939	202.502767690009	134
0	941	204.329576303036	135
0	953	205.771861359262	136
0	957	207.032059026667	137
0	965	208.260011823866	138
0	969	209.768662509992	139
0	971	211.239377234382	140
0	973	212.530493357004	141
0	975	213.635883226543	142
0	983	215.491426204582	143
0	999	217.169585225423	144
0	1011	219.045578164066	145
0	1019	220.764176840213	146
0	1023	222.59596041941	147
0	1031	224.096158407646	148
0	1033	225.191676013189	149
0	1049	226.203727210424	150
0	1053	227.299862590171	151
0	1055	229.039397221077	152
0	1057	230.300413655368	153
0	1061	232.238844679919	154
0	1065	233.339438028418	155
0	1071	234.938838102872	156
0	1073	236.808863881527	157
0	1081	238.311885285674	158
0	1089	239.746940595813	159
1	5	1.317434556699	0
1	15	4.841836686562	1
1	31	6.141911869223	2
1	39	9.298088766301	3
1	47	10.786290086686	4
1	55	12.298766518839	5
1	61	15.06054924468	6
1	87	18.18777772792	7
1	99	20.048214030548	8
1	107	21.412895530177	9
1	119	22.958263435662	10
1	133	25.915424468992	11
1	155	29.065375055128	12
1	163	30.632695403981	13
1	173	32.509059154953	14
1	183	34.341593527714	15
1	191	39.117023592182	16
1	211	40.303837359965	17
1	217	42.031550550929	18
1	223	44.928419438644	19
1	231	45.954782388811	20
1	239	47.31626193539	21
1	255	48.93388917422	22
1	259	50.133072672642	23
1	267	51.917350569049	24
1	271	53.591673755977	25
1	279	54.995008646203	26
1	287	56.840726888929	27
1	295	58.236499051488	28
1	311	59.588956148476	29
1	319	60.717432450867	30
1	323	61.999258749204	31
1	331	63.86661221584	32
1	341	67.468751386156	33
1	355	75.620120230762	34
1	363	77.009196469331	35
1	371	78.656235198377	36
1	375	80.493830791306	37
1	383	83.127779031436	38
1	391	84.34136813805	39
1	397	85.510969099232	40
1	401	87.170402067303	41
1	409	88.365693502149	42
1	419	89.663593286293	43
1	435	91.607719838658	44
1	441	92.824818797949	45
1	449	95.406432444565	46
1	453	96.976843460635	47
1	465	98.710794340755	48
1	481	100.01981686479	49
1	485	101.27543072604	50
1	491	102.793086043774	51
1	495	104.549345776185	52
1	503	106.504864029013	53
1	511	107.705779635358	54
1	519	108.997134676359	55
1	525	112.488723109434	56
1	533	114.44951040411	57
1	541	116.089662638508	58
1	549	117.119522222282	59
1	557	120.049082707942	60
1	565	121.260569045	61
1	571	124.016981800334	62
1	579	125.88479051523	63
1	585	127.49417164698	64
1	591	130.610746962001	65
1	599	131.646987910326	66
1	605	132.956994133234	67
1	611	136.480442587198	68
1	617	139.504198567102	69
1	637	141.077740214469	70
1	647	144.622578102822	71
1	661	146.582289565476	72
1	667	148.12730551158	73
1	677	151.013985029602	74
1	693	152.146225636011	75
1	701	153.210909911009	76
1	705	155.0181341532	77
1	713	158.048830235799	78
1	717	159.802572285662	79
1	721	161.247461773754	80
1	729	162.836436264506	81
1	745	163.88421552778	82
1	753	165.714650019535	83
1	759	166.734211718934	84
1	771	168.272972153109	85
1	781	171.083652274181	86
1	789	172.647098852134	87
1	801	174.111676557627	88
1	811	176.43441290187	89
1	815	177.807131001829	90
1	827	179.015801110766	91
1	833	180.321752833923	92
1	841	181.618312388653	93
1	855	184.788405839455	94
1	859	186.440681744667	95
1	885	188.20097541375	96
1	893	189.752573188174	97
1	901	191.150270189002	98
1	909	194.821987957186	99
1	917	196.566078264308	100
1	921	198.430316107838	101
1	927	200.249805783246	102
1	933	201.409123080393	103
1	943	204.343072172796	104
1	955	205.798434169955	105
1	959	207.047893264724	106
1	967	208.279739332725	107
1	977	213.648117116633	108
1	985	215.506808665	109
1	1001	217.207852787833	110
1	1013	219.069336325295	111
1	1021	220.777548648093	112
1	1025	222.606363075516	113
1	1035	225.203996426508	114
1	1051	226.238636215992	115
1	1059	230.341914040516	116
1	1063	232.257625365852	117
1	1067	233.356014456286	118
1	1075	236.819629031693	119
1	1083	238.330407755008	120
2	7	1.332888171871	0
2	17	4.868886637503	1
2	33	6.157500170984	2
2	41	9.309219845066	3
2	63	15.072998918356	4
2	89	18.213885032923	5
2	101	20.070634836269	6
2	135	25.938833846211	7
2	165	30.650464856004	8
2	213	40.329876169488	9
2	225	44.962571996485	10
2	241	47.374525403486	11
2	261	50.161941861432	12
2	297	58.246545795777	13
2	325	62.014521520503	14
2	333	63.897866824482	15
2	343	67.480382300202	16
2	377	80.505763292142	17
2	385	83.138693379332	18
2	443	92.83948517709	19
2	497	104.584734439015	20
2	513	107.753306161525	21
2	535	114.463556458198	22
2	601	131.659309796813	23
2	649	144.642158173439	24
2	669	148.140083239957	25
2	679	151.052185615801	26
2	695	152.15728575979	27
2	707	155.028376513492	28
2	723	161.275159552374	29
2	747	163.909624056022	30
2	761	166.762926742237	31
2	835	180.351722675652	32
2	887	188.221269411867	33
2	895	189.76897121007	34
2	923	198.485183268637	35
2	929	200.275023458871	36
2	945	204.383575267418	37
2	987	215.521321012191	38
2	1015	219.082742771497	39
2	1037	225.222795237997	40
3	9	1.344565575783	0
3	19	4.880332040244	1
3	23	4.924556975476	2
3	27	4.971202677637	3
3	43	9.327830961701	4
3	51	10.823947706278	5
3	65	15.087178552072	6
3	69	15.115912766717	7
3	73	15.172956181014	8
3	77	15.214346176875	9
3	81	15.241860901659	10
3	91	18.236145240497	11
3	95	18.263550859942	12
3	103	20.087646638644	13
3	111	21.450790047657	14
3	115	21.473315497802	15
3	123	22.992132370676	16
3	127	23.037647374452	17
3	137	25.965102338814	18
3	141	25.999470845639	19
3	145	26.055851304034	20
3	149	26.082756397089	21
3	159	29.106086769703	22
3	167	30.660873192982	23
3	177	32.540247383163	24
3	195	39.155748266105	25
3	199	39.194666253009	26
3	203	39.218876447019	27
3	207	39.261053622151	28
3	227	44.973251184579	29
3	235	45.980141151131	30
3	243	47.39046774238	31
3	247	47.436993659766	32
3	251	47.471458811778	33
3	263	50.175974642104	34
3	275	53.625099433819	35
3	283	55.026178003452	36
3	291	56.88752770798	37
3	299	58.260793775917	38
3	303	58.316975609919	39
3	307	58.367247835003	40
3	315	59.625700607412	41
3	327	62.024962387817	42
3	335	63.909891472662	43
3	359	75.645141585937	44
3	367	77.050867360317	45
3	387	83.15301234608	46
3	405	87.198686925317	47
3	413	88.40209546452	48
3	423	89.693545631263	49
3	427	89.736460178399	50
3	431	89.765383064282	51
3	457	97.038328810727	52
3	461	97.08835790265	53
3	469	98.76363118646	54
3	473	98.785024074436	55
3	477	98.833209479825	56
3	499	104.598178200965	57
3	507	106.53667604374	58
3	515	107.770712099889	59
3	529	112.517896420422	60
3	537	114.475303289303	61
3	545	116.149079094138	62
3	561	120.101034666206	63
3	575	124.055488483762	64
3	595	130.645149751833	65
3	621	139.542987219337	66
3	625	139.573226993019	67
3	629	139.596717483878	68
3	633	139.62876393296	69
3	641	141.102564634227	70
3	651	144.660063325649	71
3	655	144.696180327985	72
3	671	148.162063125936	73
3	681	151.072845140092	74
3	685	151.108827824125	75
3	689	151.159165582468	76
3	697	152.172997225779	77
3	725	161.299898923155	78
3	733	162.874585986034	79
3	737	162.906981372451	80
3	741	162.934257169215	81
3	749	163.934460330745	82
3	763	166.785598145461	83
3	767	166.809677669868	84
3	775	168.295007327957	85
3	785	171.113941858063	86
3	793	172.67095574754	87
3	797	172.696754140232	88
3	805	174.156317821216	89
3	819	177.836200391753	90
3	823	177.865891133107	91
3	837	180.366167774966	92
3	845	181.654949859655	93
3	849	181.746568216656	94
3	863	186.465818585168	95
3	867	186.514157198631	96
3	871	186.549296812793	97
3	875	186.598642951087	98
3	879	186.638285069978	99
3	889	188.239882783373	100
3	897	189.782887323198	101
3	913	194.848869890845	102
3	937	201.442948654407	103
3	947	204.420603695703	104
3	951	204.458347163528	105
3	963	207.090102011345	106
3	981	213.681607874761	107
3	989	215.549332475766	108
3	993	215.57677488886	109
3	997	215.623054024804	110
3	1005	217.247278464774	111
3	1009	217.282073540689	112
3	1017	219.09435764972	113
3	1029	222.647184305232	114
3	1039	225.233506842541	115
3	1043	225.259200546587	116
3	1047	225.310310412109	117
3	1079	236.857399451769	118
3	1087	238.365798463724	119
4	10	1.354565575783	0
4	52	10.833947706278	1
4	82	15.251860901659	2
4	96	18.273550859942	3
4	104	20.097646638644	4
4	116	21.483315497802	5
4	128	23.047647374452	6
4	150	26.092756397089	7
4	160	29.116086769703	8
4	208	39.271053622151	9
4	264	50.185974642104	10
4	292	56.89752770798	11
4	308	58.377247835003	12
4	316	59.635700607412	13
4	336	63.919891472662	14
4	360	75.655141585937	15
4	388	83.16301234608	16
4	406	87.208686925317	17
4	432	89.775383064282	18
4	462	97.09835790265	19
4	478	98.843209479825	20
4	500	104.608178200965	21
4	508	106.54667604374	22
4	516	107.780712099889	23
4	530	112.527896420422	24
4	576	124.065488483762	25
4	596	130.655149751833	26
4	634	139.63876393296	27
4	672	148.172063125936	28
4	698	152.182997225779	29
4	742	162.944257169215	30
4	768	166.819677669868	31
4	776	168.305007327957	32
4	824	177.875891133107	33
4	838	180.376167774966	34
4	850	181.756568216656	35
4	890	188.249882783373	36
4	898	189.792887323198	37
4	914	194.858869890845	38
4	938	201.452948654407	39
4	982	213.691607874761	40
4	1010	217.292073540689	41
4	1018	219.10435764972	42
4	1030	222.657184305232	43
4	1048	225.320310412109	44
4	1088	238.375798463724	45
5	21	4.899170202548	0
5	25	4.94245812377	1
5	49	10.80691094781	2
5	67	15.100172498326	3
5	71	15.132220924367	4
5	75	15.199783711606	5
5	79	15.231585109658	6
5	93	18.247999208651	7
5	109	21.440734449173	8
5	113	21.460921075718	9
5	121	22.975259252379	10
5	125	23.019640542625	11
5	139	25.980493791422	12
5	143	26.011339891653	13
5	147	26.06728947902	14
5	157	29.091836651959	15
5	169	30.680643243571	16
5	175	32.526997845849	17
5	179	32.552313039734	18
5	193	39.142385091366	19
5	197	39.166015650642	20
5	201	39.206235251727	21
5	205	39.230640185011	22
5	233	45.96698919361	23
5	245	47.421113456115	24
5	249	47.461025255693	25
5	273	53.615014591273	26
5	281	55.015854787062	27
5	289	56.865412218999	28
5	301	58.291713927994	29
5	305	58.353034330427	30
5	313	59.599982547016	31
5	357	75.632137554113	32
5	365	77.034814563006	33
5	393	84.351990164994	34
5	403	87.187625810037	35
5	411	88.380248776378	36
5	415	88.417250411892	37
5	421	89.673780320463	38
5	425	89.704095370538	39
5	429	89.749157122867	40
5	437	91.623458733397	41
5	455	97.004967789391	42
5	459	97.0673287071	43
5	467	98.751162112757	44
5	471	98.774075823677	45
5	475	98.803162773587	46
5	487	101.286080395217	47
5	505	106.516109519348	48
5	527	112.50645278758	49
5	543	116.126854228651	50
5	551	117.134228363361	51
5	559	120.075858896635	52
5	573	124.030082793629	53
5	581	125.905808334755	54
5	593	130.62902192025	55
5	619	139.51489312418	56
5	623	139.556609469673	57
5	627	139.586436119446	58
5	631	139.617726425818	59
5	639	141.090276259041	60
5	653	144.674807024932	61
5	657	144.725707876742	62
5	663	146.594423999728	63
5	683	151.093447093238	64
5	687	151.144702300169	65
5	731	162.858363992699	66
5	735	162.895481756003	67
5	739	162.92008187411	68
5	755	165.743234917135	69
5	765	166.799249784864	70
5	773	168.284346730098	71
5	783	171.100709631753	72
5	791	172.657253841922	73
5	795	172.681688952293	74
5	803	174.138565174494	75
5	817	177.818043995972	76
5	821	177.852603442386	77
5	829	179.038914279677	78
5	843	181.639642669603	79
5	847	181.728601431105	80
5	861	186.453461955127	81
5	865	186.50124285139	82
5	869	186.530362442978	83
5	873	186.576223896561	84
5	877	186.617314403221	85
5	881	186.657060049899	86
5	903	191.16649172742	87
5	911	194.834431750249	88
5	935	201.420329332809	89
5	949	204.442371813607	90
5	961	207.072104806027	91
5	979	213.668466078188	92
5	991	215.566455370092	93
5	995	215.590144484398	94
5	1003	217.236012079143	95
5	1007	217.259869982853	96
5	1027	222.61837141305	97
5	1041	225.249084871244	98
5	1045	225.290252666518	99
5	1069	233.374046284363	100
5	1077	236.831577756971	101
5	1085	238.344120927535	102

