version 2
run General-4-20231007-21:33:18-5989
attr configname General
attr datetime 20231007-21:33:18
attr experiment General
attr inifile omnetpp.ini
attr iterationvars ""
attr iterationvarsf ""
attr measurement ""
attr network Reliability
attr processid 5989
attr repetition 4
attr replication #4
attr resultdir results
attr runnumber 4
attr seedset 4
param Reliability.node[*].transmissionTime "uniform(1s, 2s)"
param Reliability.node[*].delayTime "uniform(0.01s, 0.2s)"
param Reliability.node[*].processingTime exponential(0.01s)
param Reliability.node[*].lossProbability 0.2

vector 0 Reliability.node[0] txVector ETV
vector 1 Reliability.node[1] txVector ETV
vector 2 Reliability.node[3] txVector ETV
vector 3 Reliability.node[4] txVector ETV
vector 4 Reliability.node[2] txVector ETV
vector 5 Reliability.node[5] rxVector ETV
0	1	0.193735669288	0
0	9	2.094357123985	1
0	17	4.070631578718	2
0	27	5.642988070533	3
0	31	7.286902333763	4
0	33	9.235879640714	5
0	37	11.022185624963	6
0	39	12.463534158342	7
0	47	13.5292436971	8
0	51	15.466815282046	9
0	53	16.502573470273	10
0	57	17.73133614046	11
0	75	19.368946389216	12
0	81	21.264447550909	13
0	83	22.762241671714	14
0	99	23.944687072807	15
0	101	25.614196946998	16
0	105	26.694176186961	17
0	111	28.426769639053	18
0	115	29.491837446964	19
0	121	31.083711092746	20
0	123	32.604385494175	21
0	135	33.91139816578	22
0	141	35.578325935793	23
0	143	36.928611149932	24
0	151	38.117636903808	25
0	155	39.254562721974	26
0	157	41.156984580834	27
0	159	43.136600844017	28
0	167	44.760169682712	29
0	169	45.764090579855	30
0	179	47.226419942141	31
0	187	48.316561664608	32
0	189	50.289839662066	33
0	197	51.329930783635	34
0	207	53.226622638678	35
0	215	55.158036906192	36
0	221	57.083845501918	37
0	229	58.493436891039	38
0	249	59.772668831435	39
0	253	61.580217780231	40
0	261	63.270003074233	41
0	267	64.421888676856	42
0	269	65.734093710931	43
0	271	66.852539230522	44
0	283	68.227879375603	45
0	289	69.695411847124	46
0	301	71.310773861978	47
0	309	73.169494711712	48
0	321	75.032841834158	49
0	323	76.581646956655	50
0	331	78.181444446242	51
0	339	79.822005365661	52
0	341	81.001855001471	53
0	349	82.438878475375	54
0	351	83.851919518703	55
0	359	84.914486424451	56
0	363	86.48185539191	57
0	365	87.772695245141	58
0	367	89.518522809179	59
0	383	91.470191401349	60
0	391	92.50793658282	61
0	393	94.238151914127	62
0	399	95.834655190971	63
0	407	97.455224441285	64
0	415	98.700296339267	65
0	423	100.191232499587	66
0	431	101.697039565225	67
0	439	103.637521939739	68
0	441	105.209346633326	69
0	453	106.360835882291	70
0	459	107.472406786788	71
0	475	109.01185497983	72
0	477	110.447131290255	73
0	479	111.519298710083	74
0	481	113.051527234414	75
0	483	114.990356144882	76
0	491	116.295171853542	77
0	497	118.16341643144	78
0	505	119.364398734799	79
0	511	120.797567384705	80
0	517	122.494618823674	81
0	521	124.197748701709	82
0	527	126.163278011528	83
0	531	128.081461312871	84
0	537	130.063973182503	85
0	549	131.689114373101	86
0	557	132.996059586916	87
0	565	134.567982090328	88
0	581	136.543718987301	89
0	589	138.078823256928	90
0	593	139.686330014064	91
0	597	141.026782638316	92
0	599	142.591639743575	93
0	605	143.710784639853	94
0	613	145.370642889214	95
0	619	147.071450121624	96
0	629	148.752139156608	97
0	639	150.023932571447	98
0	641	151.502283101826	99
0	643	152.585106630036	100
0	651	154.54885607182	101
0	659	156.37116901406	102
0	667	157.866038732155	103
0	671	159.523048781947	104
0	677	160.699062264216	105
0	683	161.997389259905	106
0	695	163.02834616361	107
0	703	164.635034649091	108
0	709	166.52791044155	109
0	717	168.241327872191	110
0	733	169.529450682382	111
0	749	170.88766873015	112
0	757	172.154864401248	113
0	761	173.793728875386	114
0	767	175.700290708028	115
0	771	177.47260605024	116
0	779	178.887323795974	117
0	781	180.130703102953	118
0	787	181.905627740004	119
0	789	183.399894431854	120
0	799	185.126976229405	121
0	801	186.760016299473	122
0	803	187.773912304934	123
0	805	189.762098725341	124
0	811	190.97844009955	125
0	813	192.316191039435	126
0	817	193.935841387525	127
0	835	195.520603719089	128
0	837	196.634140912598	129
0	845	197.855069772495	130
0	853	199.669314165056	131
0	855	201.389708944984	132
0	857	202.507176606139	133
0	865	203.653488212187	134
0	869	205.099975532774	135
0	871	206.140173379487	136
0	877	207.217732547705	137
0	879	208.826996098428	138
0	887	209.9482566334	139
0	889	211.791249336365	140
0	891	213.774038141749	141
0	893	214.953883319085	142
0	901	216.435643747139	143
0	905	217.733656847307	144
0	907	218.95677321513	145
0	911	220.754621650016	146
0	917	221.825359636143	147
0	925	223.52499401748	148
0	927	225.245280886924	149
0	933	226.302473606698	150
0	935	227.844325062742	151
0	943	228.974997386492	152
0	951	230.88270008696	153
0	953	232.419180317705	154
0	955	234.067273187374	155
0	957	235.092339474165	156
0	965	236.319201754562	157
0	973	237.441115349454	158
0	975	238.908101354183	159
1	3	0.205631491707	0
1	11	2.104419621445	1
1	19	4.085117857454	2
1	29	5.669651439666	3
1	35	9.26600040818	4
1	41	12.475468321933	5
1	49	13.546618787356	6
1	55	16.514945648527	7
1	59	17.746469351851	8
1	77	19.383453947261	9
1	85	22.797298853555	10
1	103	25.624653699403	11
1	107	26.72668098111	12
1	113	28.444536551768	13
1	117	29.531865954449	14
1	125	32.632292008079	15
1	137	33.92300838794	16
1	145	36.945009514084	17
1	153	38.128830487843	18
1	161	43.147469330107	19
1	171	45.775662526756	20
1	181	47.238592858093	21
1	191	50.300000663979	22
1	199	51.346940581049	23
1	209	53.264094785956	24
1	217	55.180782723171	25
1	223	57.108237466788	26
1	231	58.504710415546	27
1	251	59.783578101176	28
1	255	61.596225660874	29
1	263	63.282507976653	30
1	273	66.862841492951	31
1	285	68.284617842866	32
1	291	69.707583849081	33
1	303	71.324917279448	34
1	311	73.188353161309	35
1	325	76.624283941414	36
1	333	78.192504166944	37
1	343	81.03196342815	38
1	353	83.864101382207	39
1	361	84.934596120952	40
1	369	89.539393251719	41
1	385	91.490500242266	42
1	395	94.265034906744	43
1	401	95.845369822681	44
1	409	97.469749651863	45
1	417	98.723791725812	46
1	425	100.21176081038	47
1	433	101.708084277615	48
1	443	105.223840522984	49
1	455	106.375203150316	50
1	461	107.486842084552	51
1	485	115.001012601544	52
1	493	116.318796440136	53
1	499	118.223022329765	54
1	507	119.375208327773	55
1	513	120.838592976116	56
1	519	122.506217307582	57
1	523	124.215098016366	58
1	529	126.176724681328	59
1	533	128.091678350028	60
1	539	130.093158214418	61
1	551	131.714744895719	62
1	559	133.035807013967	63
1	567	134.581602995371	64
1	583	136.58623912608	65
1	591	138.106832023853	66
1	595	139.700251874542	67
1	601	142.601842399045	68
1	607	143.729312680157	69
1	615	145.382721655041	70
1	621	147.089207839599	71
1	631	148.772279628674	72
1	645	152.613136811037	73
1	653	154.57966469157	74
1	661	156.39560791188	75
1	669	157.890977196833	76
1	673	159.544598349764	77
1	679	160.733384117072	78
1	685	162.018315690283	79
1	697	163.074463192649	80
1	705	164.649658561937	81
1	711	166.544030892647	82
1	719	168.256012390253	83
1	735	169.548070378061	84
1	751	170.900509533677	85
1	759	172.173670918551	86
1	763	173.808531920177	87
1	769	175.725177943475	88
1	773	177.493841681568	89
1	783	180.146657503989	90
1	791	183.416654690149	91
1	807	189.777000765183	92
1	815	192.332283574868	93
1	819	193.958653807542	94
1	839	196.690883775446	95
1	847	197.908430441486	96
1	859	202.537015819731	97
1	867	203.667394611833	98
1	873	206.188338770185	99
1	881	208.841919239701	100
1	895	214.979355805434	101
1	903	216.45932074131	102
1	909	218.970204906783	103
1	913	220.76552421723	104
1	919	221.837343293215	105
1	929	225.255426615899	106
1	937	227.870645323773	107
1	945	229.035339778116	108
1	959	235.109975160551	109
1	967	236.336945784197	110
1	977	238.932273952526	111
2	5	0.228177698444	0
2	13	2.137768486183	1
2	21	4.096907237256	2
2	25	4.138504503665	3
2	65	17.792448434021	4
2	69	17.823464113233	5
2	73	17.849305807706	6
2	79	19.410109001369	7
2	91	22.840890259995	8
2	95	22.88366761883	9
2	119	29.556465709696	10
2	131	32.705171452126	11
2	139	33.959237477597	12
2	163	43.164453904111	13
2	177	45.862781698448	14
2	201	51.36012160157	15
2	205	51.386571026881	16
2	211	53.279330883836	17
2	233	58.532395804114	18
2	237	58.572045445353	19
2	241	58.66993821985	20
2	245	58.720385539162	21
2	257	61.627784383456	22
2	265	63.314053282242	23
2	275	66.877852495855	24
2	279	66.908488284081	25
2	293	69.72164034603	26
2	297	69.746128733988	27
2	317	73.226734660328	28
2	335	78.230455614878	29
2	345	81.104202401647	30
2	371	89.554886420347	31
2	375	89.576013834713	32
2	379	89.601337499294	33
2	387	91.522483438377	34
2	397	94.293490095523	35
2	411	97.50106977429	36
2	419	98.735900541201	37
2	435	101.731177351272	38
2	449	105.316414819712	39
2	467	107.542295080392	40
2	471	107.586774271378	41
2	487	115.017639845422	42
2	495	116.346594393106	43
2	515	120.864485055651	44
2	525	124.231091083244	45
2	535	128.110829569669	46
2	541	130.11071554517	47
2	545	130.140991474262	48
2	569	134.595554358331	49
2	573	134.616807995426	50
2	577	134.661627939822	51
2	609	143.757277426317	52
2	627	147.167903918665	53
2	633	148.782437462671	54
2	637	148.806905715862	55
2	663	156.406894329367	56
2	675	159.557493249708	57
2	681	160.755978104319	58
2	687	162.06133151794	59
2	691	162.085535732197	60
2	699	163.086969826759	61
2	713	166.556544403412	62
2	725	168.308062023495	63
2	729	168.339117714987	64
2	741	169.608465443198	65
2	745	169.639631330795	66
2	753	170.932858707486	67
2	765	173.819202931337	68
2	775	177.51240173484	69
2	793	183.451291895159	70
2	797	183.500436625463	71
2	821	193.970031502518	72
2	825	194.037081004077	73
2	829	194.062059368509	74
2	833	194.115325478632	75
2	897	215.000970161107	76
2	915	220.784124852439	77
2	921	221.848004665194	78
2	931	225.285304151577	79
2	947	229.04701400054	80
3	7	0.247279696778	0
3	15	2.162881753952	1
3	23	4.123617591557	2
3	45	12.534610750434	3
3	63	17.780954715471	4
3	67	17.807157686848	5
3	71	17.836390116746	6
3	89	22.826483899467	7
3	93	22.854912580972	8
3	97	22.913401461656	9
3	129	32.678556535979	10
3	133	32.72568228444	11
3	149	36.992447905554	12
3	165	43.191942218371	13
3	175	45.823993757127	14
3	185	47.275601850236	15
3	195	50.343692870304	16
3	203	51.376507586672	17
3	213	53.305982351966	18
3	227	57.151847814077	19
3	235	58.557891405689	20
3	239	58.641583233607	21
3	243	58.683007011607	22
3	247	58.739467720385	23
3	259	61.668143765648	24
3	277	66.893742623611	25
3	281	66.94557566375	26
3	295	69.734324083798	27
3	299	69.756577897096	28
3	307	71.351762601288	29
3	315	73.212085156764	30
3	319	73.238773725227	31
3	329	76.661998993954	32
3	337	78.258064507144	33
3	347	81.115512481712	34
3	357	83.8865673693	35
3	373	89.565836942679	36
3	377	89.589501513048	37
3	381	89.627337031802	38
3	389	91.538035006512	39
3	405	95.866116439946	40
3	413	97.532007735602	41
3	421	98.748219395507	42
3	429	100.235536887872	43
3	437	101.742380478783	44
3	447	105.296045807333	45
3	451	105.35599105824	46
3	465	107.532020336486	47
3	469	107.576458924384	48
3	473	107.60208313191	49
3	489	115.034394308076	50
3	503	118.249803322116	51
3	543	130.127698238334	52
3	547	130.154887308418	53
3	555	131.756025839189	54
3	563	133.065915924682	55
3	571	134.605955531296	56
3	575	134.644643015722	57
3	579	134.675539435684	58
3	587	136.640776693952	59
3	611	143.79195930986	60
3	625	147.138333883195	61
3	635	148.794447309086	62
3	649	152.66934670594	63
3	657	154.612285506776	64
3	665	156.420523293777	65
3	689	162.074902286322	66
3	693	162.136865989906	67
3	701	163.100537459684	68
3	715	166.572753350477	69
3	723	168.288369762117	70
3	727	168.327429129423	71
3	731	168.389781884333	72
3	739	169.583247746372	73
3	743	169.629221211685	74
3	747	169.662328842628	75
3	755	170.959698260794	76
3	777	177.548784319965	77
3	795	183.47341299129	78
3	823	194.018345815754	79
3	827	194.047892122833	80
3	831	194.073202383593	81
3	843	196.72129312081	82
3	851	197.95724541224	83
3	863	202.581883802441	84
3	885	208.866141630805	85
3	899	215.025697850062	86
3	923	221.858810597861	87
3	941	227.895852755058	88
3	949	229.076180047983	89
3	963	235.143653945941	90
3	971	236.375216148247	91
4	43	12.49868763669	0
4	61	17.761175284822	1
4	87	22.81109205474	2
4	109	26.737738814127	3
4	127	32.650769953356	4
4	147	36.976707299345	5
4	173	45.799914106558	6
4	183	47.262989541466	7
4	193	50.322978482633	8
4	219	55.213619549692	9
4	225	57.140400415996	10
4	287	68.318419488218	11
4	305	71.340447519547	12
4	313	73.200619219832	13
4	327	76.637749218295	14
4	355	83.874539840835	15
4	403	95.856077638389	16
4	427	100.224221934544	17
4	445	105.27318195022	18
4	457	106.393671594705	19
4	463	107.49807086685	20
4	501	118.236400679901	21
4	509	119.386019031504	22
4	553	131.741015620701	23
4	561	133.051125240563	24
4	585	136.618956391123	25
4	603	142.613139359651	26
4	617	145.414763165648	27
4	623	147.109774623196	28
4	647	152.645582399108	29
4	655	154.601945523694	30
4	707	164.671849303081	31
4	721	168.277158478139	32
4	737	169.561645019878	33
4	785	180.183783705584	34
4	809	189.7951094987	35
4	841	196.704869262944	36
4	849	197.933051928567	37
4	861	202.559896337376	38
4	875	206.212290661894	39
4	883	208.854438815433	40
4	939	227.884273206049	41
4	961	235.123169384127	42
4	969	236.358994754514	43
5	46	12.544610750434	0
5	98	22.923401461656	1
5	134	32.73568228444	2
5	150	37.002447905554	3
5	166	43.201942218371	4
5	196	50.353692870304	5
5	214	53.315982351966	6
5	228	57.161847814077	7
5	248	58.749467720385	8
5	282	66.95557566375	9
5	300	69.766577897096	10
5	308	71.361762601288	11
5	330	76.671998993954	12
5	338	78.268064507144	13
5	348	81.125512481712	14
5	358	83.8965673693	15
5	382	89.637337031802	16
5	406	95.876116439946	17
5	414	97.542007735602	18
5	422	98.758219395507	19
5	430	100.245536887872	20
5	452	105.36599105824	21
5	474	107.61208313191	22
5	490	115.044394308076	23
5	504	118.259803322116	24
5	548	130.164887308418	25
5	556	131.766025839189	26
5	564	133.075915924682	27
5	588	136.650776693952	28
5	666	156.430523293777	29
5	694	162.146865989906	30
5	702	163.110537459684	31
5	732	168.399781884333	32
5	748	169.672328842628	33
5	778	177.558784319965	34
5	844	196.73129312081	35
5	852	197.96724541224	36
5	864	202.591883802441	37
5	886	208.876141630805	38
5	900	215.035697850062	39
5	942	227.905852755058	40
5	972	236.385216148247	41

