version 2
run General-0-20231008-00:31:02-8542
attr configname General
attr datetime 20231008-00:31:02
attr experiment General
attr inifile omnetpp.ini
attr iterationvars ""
attr iterationvarsf ""
attr measurement ""
attr network Reliability
attr processid 8542
attr repetition 0
attr replication #0
attr resultdir results
attr runnumber 0
attr seedset 0
param Reliability.node[*].transmissionTime "uniform(1s, 2s)"
param Reliability.node[*].delayTime "uniform(0.01s, 0.2s)"
param Reliability.node[*].processingTime exponential(0.01s)
param Reliability.node[*].lossProbability 0.2

vector 0 Reliability.node[0] txVector ETV
vector 1 Reliability.node[1] txVector ETV
vector 2 Reliability.node[3] txVector ETV
vector 3 Reliability.node[4] txVector ETV
vector 4 Reliability.node[5] rxVector ETV
vector 5 Reliability.node[2] txVector ETV
0	1	0.114274565438	0
0	9	1.707119181827	1
0	17	3.144706391804	2
0	23	4.624683563206	3
0	25	6.272855439763	4
0	29	7.641096977125	5
0	37	9.511109122382	6
0	45	11.23174177397	7
0	47	12.496297385385	8
0	55	14.27053107189	9
0	63	15.492852457408	10
0	65	17.190483652828	11
0	73	18.250709119327	12
0	77	19.858539786031	13
0	81	21.297141299424	14
0	89	22.949931618366	15
0	93	24.194357206421	16
0	101	25.869109528679	17
0	105	26.966210799831	18
0	113	28.938155798781	19
0	117	29.977343587744	20
0	125	31.336788056725	21
0	133	33.029260176075	22
0	137	34.112372662713	23
0	145	35.779783038962	24
0	147	37.332604523124	25
0	151	38.497544983709	26
0	159	40.175361523013	27
0	167	41.571459801243	28
0	175	43.417868467355	29
0	183	44.667664742404	30
0	191	46.623748382162	31
0	199	48.33982291569	32
0	201	49.638105243519	33
0	209	51.208070155075	34
0	213	52.42933283777	35
0	221	53.865197757101	36
0	229	55.217509417637	37
0	231	56.833068985102	38
0	237	57.956888967502	39
0	239	59.364072265179	40
0	245	60.433239255409	41
0	253	62.299621581408	42
0	255	64.049620829132	43
0	261	65.389024645165	44
0	269	66.560011237935	45
0	277	67.591850161861	46
0	285	68.859112695867	47
0	289	70.257333763253	48
0	297	71.476083131118	49
0	299	72.534112293583	50
0	307	73.968528922491	51
0	309	75.82314250556	52
0	317	77.566977047903	53
0	325	78.783874028904	54
0	333	80.68829900616	55
0	337	81.961841039436	56
0	345	83.641720494332	57
0	353	84.895662139712	58
0	361	86.626104320243	59
0	365	87.743636177696	60
0	371	88.918545049924	61
0	373	90.123410811491	62
0	381	91.288369682926	63
0	387	93.192089422449	64
0	393	95.154025805957	65
0	401	96.170455437229	66
0	403	97.352086642832	67
0	411	98.86448010833	68
0	419	100.096181733841	69
0	423	101.594321962288	70
0	431	103.212198654265	71
0	437	104.965768258861	72
0	445	106.393992085783	73
0	453	108.256183599895	74
0	455	109.655682516825	75
0	461	110.957513391115	76
0	467	112.910384062287	77
0	469	114.79324406067	78
0	471	116.043866780429	79
0	479	117.721278604894	80
0	481	119.448322868749	81
0	485	120.718650772312	82
0	493	122.195127976203	83
0	497	123.478646824678	84
0	505	124.987988890457	85
0	507	126.247411456035	86
0	509	127.621224595543	87
0	511	129.208824232297	88
0	515	130.481646129239	89
0	521	132.260838100064	90
0	529	133.730336405413	91
0	535	134.765698841616	92
0	539	136.447091353667	93
0	543	137.772776120185	94
0	545	138.959907013067	95
0	551	140.863890964613	96
0	559	142.322494921117	97
0	563	143.902692028862	98
0	567	145.538753085379	99
0	575	146.54851951737	100
0	577	148.005742971395	101
0	585	149.957617446157	102
0	593	151.052075361908	103
0	601	152.9011136676	104
0	603	154.432962849578	105
0	611	156.278320533997	106
0	613	157.732482933049	107
0	615	159.05918381976	108
0	619	160.291927951929	109
0	621	161.81429848455	110
0	629	163.327373351046	111
0	633	164.458428585745	112
0	641	166.440068265965	113
0	649	168.078830020578	114
0	657	169.149277209846	115
0	665	170.573366196902	116
0	673	172.542269232759	117
0	681	174.357235714171	118
0	689	175.598781402066	119
0	695	176.657137754216	120
0	703	178.036194650066	121
0	711	179.332437036867	122
0	717	180.966434732155	123
0	719	182.666009793599	124
0	721	184.633975364576	125
0	725	186.628376152675	126
0	731	188.240124570282	127
0	739	189.61845071342	128
0	741	190.893274284044	129
0	749	192.485504702043	130
0	757	194.455579777558	131
0	759	195.980550225203	132
0	765	197.731145244169	133
0	773	198.779835534825	134
0	781	200.166662685883	135
0	789	201.842905164308	136
0	791	203.142548659894	137
0	797	204.6027683677	138
0	805	206.105477912197	139
0	813	207.31522786369	140
0	815	208.704095296873	141
0	823	209.931179267898	142
0	829	211.62766169648	143
0	837	213.418501859841	144
0	845	214.879508688425	145
0	853	216.012970157744	146
0	861	217.133889518756	147
0	869	218.308661526147	148
0	877	219.906598253486	149
0	885	220.983085024947	150
0	893	222.457753009474	151
0	901	223.762199375158	152
0	903	225.732421178914	153
0	911	227.396287245288	154
0	919	228.680287224551	155
0	927	230.112072150999	156
0	935	231.7712486266	157
0	943	233.443289684209	158
0	945	234.778787859094	159
0	953	235.926473437187	160
0	961	237.10588350504	161
0	963	238.954033888721	162
1	3	0.142870607559	0
1	11	1.739354426047	1
1	19	3.159695111894	2
1	27	6.31435713905	3
1	31	7.689549195816	4
1	39	9.529832334332	5
1	49	12.512388209617	6
1	57	14.285416642383	7
1	67	17.211472777504	8
1	75	18.2646402449	9
1	79	19.913084754493	10
1	83	21.317221491878	11
1	91	22.961662892927	12
1	95	24.208172764855	13
1	103	25.897307717872	14
1	107	26.997264012839	15
1	115	28.951479901191	16
1	119	29.993900050588	17
1	127	31.355149032045	18
1	135	33.04251358023	19
1	139	34.123785969849	20
1	149	37.347221832084	21
1	153	38.510692200318	22
1	161	40.207998858772	23
1	169	41.593482186915	24
1	177	43.431625855779	25
1	185	44.68799271251	26
1	193	46.637145029488	27
1	203	49.657042534302	28
1	211	51.219593091328	29
1	215	52.461581984342	30
1	223	53.881532383278	31
1	233	56.861908273968	32
1	241	59.386026650842	33
1	247	60.480338861328	34
1	257	64.0663454343	35
1	263	65.405250618605	36
1	271	66.571810811351	37
1	279	67.613216126814	38
1	287	68.871467941601	39
1	291	70.275763551007	40
1	301	72.547848991527	41
1	311	75.839654812879	42
1	319	77.587856092239	43
1	327	78.804252529659	44
1	335	80.714296200578	45
1	339	81.977931485563	46
1	347	83.654119729526	47
1	355	84.916054196078	48
1	363	86.64338955867	49
1	367	87.765826171148	50
1	375	90.134744217724	51
1	383	91.299240768759	52
1	389	93.205544618286	53
1	395	95.190551391112	54
1	405	97.370772300147	55
1	413	98.904302115085	56
1	421	100.124796050271	57
1	425	101.604455214736	58
1	433	103.222239217478	59
1	439	104.979304224614	60
1	447	106.440081495833	61
1	457	109.680608838467	62
1	463	110.967653857027	63
1	473	116.070496438236	64
1	483	119.459732547593	65
1	487	120.735343801032	66
1	495	122.209907156078	67
1	499	123.489550197119	68
1	513	129.223458132572	69
1	517	130.517570615327	70
1	523	132.292269097068	71
1	531	133.745964657431	72
1	537	134.778950550321	73
1	541	136.458681473835	74
1	547	138.977755383263	75
1	553	140.886770584364	76
1	561	142.345091332823	77
1	565	143.915436664082	78
1	569	145.552438914775	79
1	579	148.024317322421	80
1	587	149.977657957896	81
1	595	151.06241408046	82
1	605	154.450647475352	83
1	617	159.078715045143	84
1	623	161.834791906209	85
1	631	163.337494443497	86
1	635	164.471234345007	87
1	643	166.456807700407	88
1	651	168.100336646507	89
1	659	169.167367006797	90
1	667	170.587878584887	91
1	675	172.594599390722	92
1	683	174.36982683673	93
1	691	175.621901032877	94
1	697	176.671826535772	95
1	705	178.06790690888	96
1	713	179.362632881899	97
1	723	184.64998691104	98
1	727	186.649520734992	99
1	733	188.251178531581	100
1	743	190.925981385118	101
1	751	192.495762982487	102
1	761	195.994607488642	103
1	767	197.744070750181	104
1	775	198.797387653003	105
1	783	200.197801754029	106
1	793	203.152796991971	107
1	799	204.614436325281	108
1	807	206.116707537866	109
1	817	208.720162420965	110
1	825	209.957982091899	111
1	831	211.63868471429	112
1	839	213.446036341024	113
1	847	214.928923275271	114
1	855	216.034386312979	115
1	863	217.14881830644	116
1	871	218.321380184533	117
1	879	219.928520775907	118
1	887	220.995122878769	119
1	895	222.529712110661	120
1	905	225.745890467746	121
1	913	227.409010757552	122
1	921	228.699271248215	123
1	929	230.12713479067	124
1	937	231.784350587833	125
1	947	234.789434695145	126
1	955	235.942152314118	127
1	965	239.005033231648	128
2	5	0.160742618959	0
2	21	3.170431965449	1
2	33	7.715689216565	2
2	41	9.568776539112	3
2	59	14.30686803193	4
2	85	21.337808919029	5
2	97	24.22036157082	6
2	171	41.618050372501	7
2	179	43.453419685115	8
2	205	49.667384568486	9
2	225	53.893151084145	10
2	243	59.401475222123	11
2	249	60.49296215442	12
2	259	64.078576826381	13
2	265	65.419487189619	14
2	273	66.582327640409	15
2	281	67.632129912583	16
2	293	70.292505996703	17
2	303	72.595315937665	18
2	329	78.832033963027	19
2	369	87.784159953554	20
2	377	90.172950577208	21
2	391	93.226853803078	22
2	397	95.218451287157	23
2	415	98.926874485041	24
2	427	101.634282703782	25
2	435	103.236837130656	26
2	441	104.996464677794	27
2	449	106.465634439437	28
2	459	109.692030093581	29
2	489	120.751434445585	30
2	525	132.310885771986	31
2	533	133.757706609035	32
2	549	139.011895547568	33
2	555	140.89775177959	34
2	571	145.568566369224	35
2	589	149.988305614824	36
2	607	154.461696802825	37
2	625	161.84769464036	38
2	645	166.471397979682	39
2	661	169.194658203174	40
2	669	170.598349577598	41
2	677	172.616544290157	42
2	685	174.409976519452	43
2	693	175.641874022119	44
2	707	178.080621608544	45
2	763	196.038756737666	46
2	769	197.776074043385	47
2	785	200.209406595103	48
2	827	209.978440344827	49
2	833	211.695948666259	50
2	865	217.167091565676	51
2	897	222.54880781771	52
2	907	225.756543403702	53
2	949	234.800911013977	54
3	7	0.180512683223	0
3	15	1.778226948631	1
3	35	7.740854576305	2
3	43	9.579896000718	3
3	53	12.543454799281	4
3	61	14.326362977765	5
3	71	17.234727325048	6
3	87	21.3531595658	7
3	99	24.241224264629	8
3	111	27.06088275455	9
3	123	30.042766177908	10
3	131	31.383248014501	11
3	143	34.16422229895	12
3	157	38.536955877425	13
3	165	40.241919138336	14
3	173	41.633100559979	15
3	181	43.474198033956	16
3	189	44.717831045978	17
3	197	46.687843256096	18
3	207	49.687943064573	19
3	219	52.490338879373	20
3	227	53.903533913274	21
3	251	60.507424682625	22
3	267	65.438858576796	23
3	275	66.595044321112	24
3	283	67.675509255922	25
3	295	70.313917375732	26
3	305	72.607295615018	27
3	315	75.879888043591	28
3	323	77.623535887124	29
3	331	78.842034516546	30
3	343	82.002965071794	31
3	351	83.682826865766	32
3	359	84.95578711799	33
3	379	90.196694007352	34
3	399	95.231760385969	35
3	409	97.414152024095	36
3	417	98.946829121475	37
3	429	101.684362200331	38
3	443	105.04594101047	39
3	451	106.49050873698	40
3	477	116.113649213616	41
3	491	120.767268683295	42
3	503	123.540281515167	43
3	527	132.322798732445	44
3	557	140.919464416539	45
3	573	145.609297121452	46
3	583	148.062935058243	47
3	591	150.004236430797	48
3	599	151.088101364305	49
3	609	154.472733511191	50
3	627	161.866373259059	51
3	639	164.541348762174	52
3	647	166.496687368389	53
3	655	168.149317522951	54
3	663	169.210017191127	55
3	671	170.614311296512	56
3	679	172.630061964011	57
3	687	174.424409863412	58
3	701	176.705110137082	59
3	709	178.098726540016	60
3	737	188.293948192419	61
3	747	190.957824079105	62
3	755	192.526066642873	63
3	771	197.790358453673	64
3	779	198.841089205792	65
3	787	200.219713612833	66
3	803	204.638716598702	67
3	811	206.151275394812	68
3	821	208.773674150782	69
3	835	211.717788943622	70
3	843	213.497010805822	71
3	851	214.984198942123	72
3	859	216.090130508988	73
3	867	217.178840668277	74
3	875	218.34721563779	75
3	883	219.970216740977	76
3	891	221.050516775101	77
3	899	222.563559912098	78
3	909	225.7702431955	79
3	917	227.440775398879	80
3	925	228.730853814577	81
3	933	230.201669248004	82
3	941	231.827609178549	83
3	951	234.818292381402	84
3	959	235.990846178217	85
3	969	239.041816365266	86
4	8	0.190512683223	0
4	16	1.788226948631	1
4	44	9.589896000718	2
4	54	12.553454799281	3
4	62	14.336362977765	4
4	72	17.244727325048	5
4	88	21.3631595658	6
4	124	30.052766177908	7
4	132	31.393248014501	8
4	144	34.17422229895	9
4	158	38.546955877425	10
4	166	40.251919138336	11
4	174	41.643100559979	12
4	182	43.484198033956	13
4	190	44.727831045978	14
4	208	49.697943064573	15
4	220	52.500338879373	16
4	228	53.913533913274	17
4	252	60.517424682625	18
4	268	65.448858576796	19
4	276	66.605044321112	20
4	284	67.685509255922	21
4	316	75.889888043591	22
4	324	77.633535887124	23
4	332	78.852034516546	24
4	344	82.012965071794	25
4	352	83.692826865766	26
4	360	84.96578711799	27
4	400	95.241760385969	28
4	410	97.424152024095	29
4	418	98.956829121475	30
4	430	101.694362200331	31
4	444	105.05594101047	32
4	452	106.50050873698	33
4	478	116.123649213616	34
4	492	120.777268683295	35
4	504	123.550281515167	36
4	528	132.332798732445	37
4	558	140.929464416539	38
4	574	145.619297121452	39
4	592	150.014236430797	40
4	628	161.876373259059	41
4	640	164.551348762174	42
4	648	166.506687368389	43
4	656	168.159317522951	44
4	664	169.220017191127	45
4	672	170.624311296512	46
4	680	172.640061964011	47
4	688	174.434409863412	48
4	702	176.715110137082	49
4	710	178.108726540016	50
4	738	188.303948192419	51
4	748	190.967824079105	52
4	756	192.536066642873	53
4	772	197.800358453673	54
4	780	198.851089205792	55
4	788	200.229713612833	56
4	804	204.648716598702	57
4	812	206.161275394812	58
4	822	208.783674150782	59
4	844	213.507010805822	60
4	852	214.994198942123	61
4	868	217.188840668277	62
4	876	218.35721563779	63
4	892	221.060516775101	64
4	900	222.573559912098	65
4	910	225.7802431955	66
4	918	227.450775398879	67
4	926	228.740853814577	68
4	934	230.211669248004	69
4	942	231.837609178549	70
4	952	234.828292381402	71
4	960	236.000846178217	72
4	970	239.051816365266	73
5	13	1.752537987455	0
5	51	12.52384098989	1
5	69	17.223347038164	2
5	109	27.044883285684	3
5	121	30.007727060077	4
5	129	31.372261511417	5
5	141	34.152198794564	6
5	155	38.5240956677	7
5	163	40.220523058701	8
5	187	44.707637248165	9
5	195	46.656768780046	10
5	217	52.479282752937	11
5	235	56.877208302749	12
5	313	75.85734601089	13
5	321	77.599332052568	14
5	341	81.9903586705	15
5	349	83.670501615582	16
5	357	84.929306356258	17
5	385	91.322397031342	18
5	407	97.401687865873	19
5	465	110.992375898607	20
5	475	116.085953015384	21
5	501	123.511490330825	22
5	519	130.543654793818	23
5	581	148.036032708695	24
5	597	151.073689816198	25
5	637	164.527637144966	26
5	653	168.113161113627	27
5	699	176.693224489839	28
5	715	179.376922000257	29
5	729	186.664924761968	30
5	735	188.283753299489	31
5	745	190.944654305306	32
5	753	192.512812475701	33
5	777	198.819784633809	34
5	795	203.188321756906	35
5	801	204.628631118516	36
5	809	206.130129284782	37
5	819	208.739047708088	38
5	841	213.465799261254	39
5	849	214.948643764956	40
5	857	216.078896414273	41
5	873	218.333126462498	42
5	881	219.959598579491	43
5	889	221.027956819113	44
5	915	227.42467777715	45
5	923	228.710289404635	46
5	931	230.178889226712	47
5	939	231.816404595871	48
5	957	235.953284047442	49
5	967	239.030216923132	50

