version 2
run General-3-20231004-20:10:54-11760
attr configname General
attr datetime 20231004-20:10:54
attr experiment General
attr inifile omnetpp.ini
attr iterationvars ""
attr iterationvarsf ""
attr measurement ""
attr network Reliability
attr processid 11760
attr repetition 3
attr replication #3
attr resultdir results
attr runnumber 3
attr seedset 3
param Reliability.node[*].transmissionTime "uniform(1s, 2s)"
param Reliability.node[*].delayTime "uniform(0.01s, 0.2s)"
param Reliability.node[*].processingTime exponential(0.01s)
param Reliability.node[*].lossProbability 0.2

vector 0 Reliability.node[0] txVector ETV
vector 1 Reliability.node[1] txVector ETV
vector 2 Reliability.node[3] txVector ETV
vector 3 Reliability.node[4] txVector ETV
vector 4 Reliability.node[5] rxVector ETV
0	1	0.114651601831	0
0	9	1.185376482154	1
0	13	2.622438422241	2
0	17	3.663069159793	3
0	21	4.756620655371	4
0	29	5.901990802795	5
0	33	7.394626723904	6
0	41	9.160453098429	7
0	47	10.466813725488	8
0	55	11.921421490445	9
0	63	13.814486596802	10
0	71	15.139792773941	11
0	79	16.553511457586	12
0	87	17.86927870598	13
0	95	19.072633234852	14
0	103	20.883860991172	15
0	107	21.947630792925	16
0	115	23.640264540048	17
0	123	25.097596715273	18
0	131	26.586887970868	19
0	133	27.729487317217	20
0	141	29.031750930774	21
0	149	30.514196733314	22
0	151	31.721162868965	23
0	153	33.646895653404	24
0	155	34.924218702431	25
0	157	36.100280817666	26
0	159	38.090582006213	27
0	161	39.783232622615	28
0	165	41.535372652647	29
0	173	42.621373368029	30
0	181	44.147484367548	31
0	189	46.028595107675	32
0	197	47.925091765656	33
0	199	49.470474382465	34
0	201	51.298496499493	35
0	209	52.532188508728	36
0	213	53.72043935682	37
0	221	55.222969573059	38
0	227	57.109867700443	39
0	229	58.452287287286	40
0	235	60.061933002037	41
0	239	62.061908465878	42
0	247	63.319114843917	43
0	255	65.154361154486	44
0	257	66.701491908704	45
0	259	68.193307456861	46
0	261	69.322965840877	47
0	269	71.183019303785	48
0	277	73.174315024701	49
0	279	74.514320949859	50
0	287	76.211070937638	51
0	295	77.292641980176	52
0	299	78.387523314052	53
0	307	79.925987005767	54
0	315	81.422651960349	55
0	323	83.420464360223	56
0	331	84.526386085034	57
0	335	86.224051749401	58
0	343	88.15255059588	59
0	351	89.755041126928	60
0	359	91.537425105993	61
0	367	92.643084310528	62
0	373	94.363235544248	63
0	375	95.385331358595	64
0	383	96.607707678175	65
0	391	98.084639442454	66
0	395	99.887467412579	67
0	401	101.248551187639	68
0	403	102.532240637413	69
0	407	103.745134973035	70
0	409	104.870956012814	71
0	417	106.863879569874	72
0	423	108.157234083696	73
0	429	109.945823219905	74
0	437	111.070444969993	75
0	439	112.345082439549	76
0	443	114.28699680308	77
0	451	115.362785007871	78
0	455	117.092944546203	79
0	463	118.273684875174	80
0	471	120.067007553364	81
0	477	121.722141464307	82
0	485	122.900680298285	83
0	489	124.226944303672	84
0	495	125.32752201643	85
0	503	126.397891775772	86
0	511	127.93148671074	87
0	513	129.265669682363	88
0	517	131.109945314305	89
0	525	132.966563472824	90
0	531	134.796433509394	91
0	539	135.9877168006	92
0	547	137.803986049324	93
0	555	139.478316424481	94
0	563	140.566894280558	95
0	571	141.772533832417	96
0	579	143.190756639765	97
0	581	144.730628784114	98
0	585	146.593880393143	99
0	589	148.490944000959	100
0	591	150.333185228353	101
0	599	151.966145761611	102
0	603	153.594987913335	103
0	611	155.577792683916	104
0	619	156.899257386636	105
0	623	158.598509852376	106
0	627	160.010940918766	107
0	629	161.064947904853	108
0	631	162.787390107356	109
0	639	164.415415592559	110
0	647	165.672458189607	111
0	655	167.297966583234	112
0	661	168.789027894449	113
0	667	169.798884718746	114
0	673	171.291736040564	115
0	681	172.366460948784	116
0	689	173.893364842117	117
0	697	175.302938072311	118
0	699	177.217417809481	119
0	701	179.108841483316	120
0	703	180.964389684911	121
0	705	182.292626037796	122
0	713	183.378869655377	123
0	715	185.3343140288	124
0	723	187.116216996287	125
0	725	188.199009021812	126
0	733	189.419682675342	127
0	741	190.646887113408	128
0	745	191.949746667475	129
0	753	193.948093746158	130
0	761	195.471578280742	131
0	765	196.960842272334	132
0	773	197.988479879985	133
0	781	199.606572244384	134
0	787	200.762571675305	135
0	795	202.137633791028	136
0	803	203.608701592844	137
0	811	204.697482605997	138
0	819	206.654953771337	139
0	827	207.971636563606	140
0	835	209.061229025313	141
0	837	210.737232516586	142
0	841	212.43616190699	143
0	847	213.68485183904	144
0	849	215.608718561074	145
0	857	216.648512714142	146
0	859	218.597749739019	147
0	867	219.866980509665	148
0	875	221.826545809461	149
0	883	223.44378696668	150
0	891	225.158160679574	151
0	893	226.442511563022	152
0	901	228.28526009975	153
0	907	229.448848134205	154
0	913	230.670610043053	155
0	919	232.302100000037	156
0	921	233.399157315558	157
0	925	234.710706651975	158
0	931	236.569738723171	159
0	939	238.507977147653	160
1	3	0.14297423212	0
1	11	1.195565741975	1
1	15	2.635287126552	2
1	19	3.684937814755	3
1	23	4.772656870533	4
1	31	5.93644398431	5
1	35	7.44098893782	6
1	43	9.179286977874	7
1	49	10.490988077747	8
1	57	11.944094949168	9
1	65	13.84103770917	10
1	73	15.165263909559	11
1	81	16.571784418855	12
1	89	17.889881207703	13
1	97	19.087319276592	14
1	105	20.912252090942	15
1	109	21.963534901909	16
1	117	23.666786023238	17
1	125	25.115364603537	18
1	135	27.755939143054	19
1	143	29.042014640209	20
1	163	39.794468055196	21
1	167	41.556327562525	22
1	175	42.636902525004	23
1	183	44.173608967833	24
1	191	46.054000307043	25
1	203	51.310763970458	26
1	211	52.548525624909	27
1	215	53.73233116187	28
1	223	55.239966363532	29
1	231	58.463572639004	30
1	237	60.075052035981	31
1	241	62.075146969815	32
1	249	63.330696788293	33
1	263	69.335429935815	34
1	271	71.194735135056	35
1	281	74.538120404228	36
1	289	76.224748061514	37
1	297	77.307849039312	38
1	301	78.408009350112	39
1	309	79.948152173964	40
1	317	81.434391294607	41
1	325	83.433837343798	42
1	333	84.53664467866	43
1	337	86.238562803189	44
1	345	88.16518323597	45
1	353	89.780828384466	46
1	361	91.553205497867	47
1	369	92.658362186115	48
1	377	95.399743509846	49
1	385	96.624970287612	50
1	393	98.117742672497	51
1	397	99.919014639888	52
1	405	102.547692504978	53
1	411	104.886639400137	54
1	419	106.87993664481	55
1	425	108.176843152172	56
1	431	109.956137395915	57
1	441	112.358322690622	58
1	445	114.300203707668	59
1	453	115.382335049468	60
1	457	117.116563663143	61
1	465	118.29374438959	62
1	473	120.077012342666	63
1	479	121.746800629175	64
1	487	122.919449318148	65
1	491	124.243914316521	66
1	497	125.355779527839	67
1	505	126.426499462161	68
1	515	129.280883109464	69
1	519	131.135857661097	70
1	527	132.986635840829	71
1	533	134.814789410464	72
1	541	136.015046060124	73
1	549	137.837884707504	74
1	557	139.493964284716	75
1	565	140.579531122909	76
1	573	141.819400089724	77
1	583	144.749605288614	78
1	587	146.61182838378	79
1	593	150.358848569527	80
1	601	151.985231582117	81
1	605	153.614582915936	82
1	613	155.5931643664	83
1	621	156.915232828439	84
1	625	158.642540908995	85
1	633	162.802642562347	86
1	641	164.434763799476	87
1	649	165.693558950294	88
1	657	167.321822347306	89
1	663	168.799895159252	90
1	669	169.819063257389	91
1	675	171.306782192973	92
1	683	172.384072614799	93
1	691	173.91254773394	94
1	707	182.306821869791	95
1	717	185.352073899567	96
1	727	188.228054697934	97
1	735	189.444282063849	98
1	743	190.657265554341	99
1	747	191.969843272691	100
1	755	193.971564216112	101
1	763	195.484974698526	102
1	767	196.971929098299	103
1	775	198.020445390453	104
1	783	199.61786874579	105
1	789	200.780868718183	106
1	797	202.148084969997	107
1	805	203.621654775214	108
1	813	204.715493070141	109
1	821	206.665719166185	110
1	829	207.983579737072	111
1	839	210.761578385066	112
1	843	212.452079357833	113
1	851	215.640675647506	114
1	861	218.611518529057	115
1	869	219.885108831845	116
1	877	221.844440528124	117
1	885	223.455657623889	118
1	895	226.458465482483	119
1	903	228.298778330227	120
1	909	229.474569858757	121
1	915	230.69205530225	122
1	923	233.409779909232	123
1	927	234.731634763013	124
1	933	236.58327112362	125
1	941	238.523987659889	126
2	5	0.154267674735	0
2	25	4.785084939324	1
2	37	7.456136615698	2
2	45	9.192501712211	3
2	51	10.518002005027	4
2	59	11.954303248637	5
2	67	13.856129162135	6
2	75	15.18776637211	7
2	83	16.595573930211	8
2	91	17.910748625906	9
2	99	19.098101055632	10
2	111	21.978034409632	11
2	119	23.680588157565	12
2	127	25.142858966658	13
2	137	27.769788344664	14
2	145	29.05905821923	15
2	169	41.570325942594	16
2	177	42.664038334964	17
2	185	44.187915646627	18
2	193	46.067332784659	19
2	205	51.352545204856	20
2	217	53.745875177938	21
2	225	55.258458237774	22
2	233	58.47396959548	23
2	243	62.088047037681	24
2	251	63.394608079659	25
2	265	69.362821495631	26
2	273	71.211096491367	27
2	283	74.565105027969	28
2	291	76.242980307357	29
2	303	78.421719430922	30
2	311	79.969511672612	31
2	319	81.461513871395	32
2	327	83.456341160899	33
2	339	86.264660049081	34
2	347	88.181045692719	35
2	355	89.795623735503	36
2	363	91.582462794446	37
2	371	92.669860844167	38
2	379	95.425010921627	39
2	387	96.639566548481	40
2	399	99.932669307482	41
2	413	104.906228911132	42
2	421	106.895013897678	43
2	427	108.195796422435	44
2	433	109.968778332568	45
2	447	114.352909526784	46
2	459	117.13111255421	47
2	467	118.318042303212	48
2	475	120.094593747498	49
2	481	121.757054066566	50
2	493	124.270058631816	51
2	499	125.377500270264	52
2	507	126.446105667183	53
2	521	131.146975265043	54
2	529	133.000796034038	55
2	535	134.82506345003	56
2	543	136.025278981546	57
2	551	137.860469550025	58
2	559	139.528542699755	59
2	567	140.612204169864	60
2	575	141.865550963887	61
2	595	150.369293378135	62
2	607	153.633049061491	63
2	615	155.611629652119	64
2	635	162.814441003207	65
2	643	164.47600472008	66
2	651	165.726304841505	67
2	659	167.334564397072	68
2	665	168.816930861753	69
2	671	169.837617755282	70
2	677	171.321664232213	71
2	685	172.401807629545	72
2	693	173.922910828277	73
2	709	182.316882624398	74
2	719	185.422986874462	75
2	729	188.259603331961	76
2	737	189.454909477573	77
2	749	191.985383291374	78
2	757	193.99910464307	79
2	769	196.988107529318	80
2	777	198.042581501765	81
2	785	199.64031858397	82
2	791	200.817550502557	83
2	799	202.16526805266	84
2	807	203.633331041256	85
2	815	204.737985256503	86
2	823	206.68324678085	87
2	831	208.00265854416	88
2	845	212.463103063029	89
2	853	215.652358649935	90
2	863	218.625471106516	91
2	871	219.899562479053	92
2	879	221.861399254557	93
2	887	223.476482035365	94
2	897	226.488563784119	95
2	905	228.318877684486	96
2	911	229.485910972287	97
2	917	230.712454391814	98
2	929	234.741967523919	99
2	935	236.63588818066	100
2	943	238.548418725225	101
3	7	0.172691372567	0
3	27	4.799453027724	1
3	39	7.47418348202	2
3	53	10.530980477886	3
3	61	11.965843124413	4
3	69	13.87165782647	5
3	77	15.198000261815	6
3	85	16.614980370623	7
3	93	17.941233641534	8
3	101	19.122396352048	9
3	113	21.995293068492	10
3	121	23.709153511848	11
3	129	25.160232138074	12
3	139	27.780002887119	13
3	147	29.094072241487	14
3	171	41.584814637835	15
3	179	42.682507958178	16
3	187	44.212732194123	17
3	195	46.098695735544	18
3	207	51.377076076661	19
3	219	53.759005960756	20
3	245	62.120849114068	21
3	253	63.409004439414	22
3	267	69.436493987898	23
3	275	71.233387056109	24
3	285	74.593925499768	25
3	293	76.278220160957	26
3	305	78.450130216274	27
3	313	79.989277485196	28
3	321	81.475116374553	29
3	329	83.469064975464	30
3	341	86.287373854102	31
3	349	88.201347988159	32
3	357	89.810864819986	33
3	365	91.627339884225	34
3	381	95.440978410162	35
3	389	96.652610455325	36
3	415	104.954898095421	37
3	435	109.978906707979	38
3	449	114.368402149799	39
3	461	117.156107723866	40
3	469	118.338204874804	41
3	483	121.767735461964	42
3	501	125.388825961208	43
3	509	126.508172217731	44
3	523	131.16954123557	45
3	537	134.835607748115	46
3	545	136.037348620495	47
3	553	137.886030619156	48
3	561	139.552988472354	49
3	569	140.635794992563	50
3	577	141.87613467448	51
3	597	150.382475250733	52
3	609	153.655426312492	53
3	617	155.623601979285	54
3	637	162.828963828054	55
3	645	164.507412286192	56
3	653	165.747754547996	57
3	679	171.335798888017	58
3	687	172.424467088715	59
3	695	173.938248683399	60
3	711	182.327405724834	61
3	721	185.454948684669	62
3	731	188.276165001369	63
3	739	189.466761955587	64
3	751	192.000944402827	65
3	759	194.014966559473	66
3	771	197.002845228025	67
3	779	198.053031436267	68
3	793	200.84196518835	69
3	801	202.186239699609	70
3	809	203.651214493359	71
3	817	204.762279024622	72
3	825	206.694676743191	73
3	833	208.020737484466	74
3	855	215.663351087979	75
3	865	218.63936851097	76
3	873	219.911119463531	77
3	881	221.902222626093	78
3	889	223.495127626807	79
3	899	226.505160566692	80
3	937	236.646477635134	81
3	945	238.577304086797	82
4	8	0.182691372567	0
4	28	4.809453027724	1
4	40	7.48418348202	2
4	54	10.540980477886	3
4	62	11.975843124413	4
4	78	15.208000261815	5
4	86	16.624980370623	6
4	94	17.951233641534	7
4	102	19.132396352048	8
4	114	22.005293068492	9
4	122	23.719153511848	10
4	130	25.170232138074	11
4	140	27.790002887119	12
4	148	29.104072241487	13
4	172	41.594814637835	14
4	180	42.692507958178	15
4	188	44.222732194123	16
4	196	46.108695735544	17
4	208	51.387076076661	18
4	220	53.769005960756	19
4	246	62.130849114068	20
4	254	63.419004439414	21
4	276	71.243387056109	22
4	294	76.288220160957	23
4	314	79.999277485196	24
4	322	81.485116374553	25
4	330	83.479064975464	26
4	342	86.297373854102	27
4	358	89.820864819986	28
4	366	91.637339884225	29
4	416	104.964898095421	30
4	450	114.378402149799	31
4	470	118.348204874804	32
4	502	125.398825961208	33
4	510	126.518172217731	34
4	524	131.17954123557	35
4	538	134.845607748115	36
4	554	137.896030619156	37
4	562	139.562988472354	38
4	570	140.645794992563	39
4	578	141.88613467448	40
4	598	150.392475250733	41
4	610	153.665426312492	42
4	618	155.633601979285	43
4	638	162.838963828054	44
4	646	164.517412286192	45
4	654	165.757754547996	46
4	680	171.345798888017	47
4	696	173.948248683399	48
4	712	182.337405724834	49
4	722	185.464948684669	50
4	732	188.286165001369	51
4	752	192.010944402827	52
4	772	197.012845228025	53
4	780	198.063031436267	54
4	794	200.85196518835	55
4	802	202.196239699609	56
4	810	203.661214493359	57
4	818	204.772279024622	58
4	826	206.704676743191	59
4	834	208.030737484466	60
4	866	218.64936851097	61
4	874	219.921119463531	62
4	890	223.505127626807	63
4	900	226.515160566692	64
4	938	236.656477635134	65
4	946	238.587304086797	66

