version 2
run General-0-20230927-04:12:17-15000
attr configname General
attr datetime 20230927-04:12:17
attr experiment General
attr inifile omnetpp.ini
attr iterationvars ""
attr iterationvarsf ""
attr measurement ""
attr network Multihop
attr processid 15000
attr repetition 0
attr replication #0
attr resultdir results
attr runnumber 0
attr seedset 0
param Multihop.node[*].delayTime exponential(0.1s)

vector 0 Multihop.node[0] txVector ETV
vector 1 Multihop.node[1] txVector ETV
vector 2 Multihop.node[2] txVector ETV
vector 3 Multihop.node[3] txVector ETV
vector 4 Multihop.node[4] txVector ETV
vector 5 Multihop.node[5] rxVector ETV
0	1	0.079587450457	1
0	8	4.572389392877	2
0	30	6.338185088565	3
1	2	0.192146758037	1
1	9	4.694624637097	2
1	12	4.986547982562	3
1	32	6.448399407308	4
2	3	0.301378989352	1
2	10	4.827773759896	2
2	14	5.094074723695	3
2	31	6.419554464105	4
2	34	6.577343612088	5
2	41	7.137074415251	6
2	42	7.231917261256	7
2	49	7.588434768774	8
3	4	0.409251000752	1
3	11	4.932609780945	2
3	16	5.220057264553	3
3	22	5.588484041878	4
3	33	6.52110176091	5
3	36	6.68269926929	6
3	43	7.240992123358	7
3	44	7.33353862615	8
3	51	7.711698279391	9
3	52	7.713715679442	10
4	5	0.514761485619	1
4	13	5.048298742121	2
4	17	5.324173044515	3
4	18	5.399793617586	4
4	20	5.501921559581	5
4	24	5.708892964037	6
4	25	5.779978175136	7
4	35	6.628480033828	8
4	38	6.797581817548	9
4	45	7.343506542679	10
4	46	7.438424196643	11
4	53	7.812319432296	12
4	54	7.824704804118	13
5	6	0.625143078626	1
5	7	3.050783897234	2
5	15	5.15669307065	3
5	19	5.434619169598	4
5	21	5.504386098959	5
5	23	5.616979402167	6
5	26	5.824945359608	7
5	27	5.886167469732	8
5	28	5.928379881649	9
5	29	6.260540367284	10
5	37	6.73155283735	11
5	39	6.889912414474	12
5	40	6.900022302455	13
5	47	7.466795676421	14
5	48	7.544401657411	15
5	50	7.626412438916	16

