version 2
run General-3-20231008-06:26:05-15741
attr configname General
attr datetime 20231008-06:26:05
attr experiment General
attr inifile omnetpp.ini
attr iterationvars ""
attr iterationvarsf ""
attr measurement ""
attr network Network1
attr processid 15741
attr repetition 3
attr replication #3
attr resultdir results
attr runnumber 3
attr seedset 3
param Network1.node[*].transmissionTime "uniform(1s, 2s)"
param Network1.node[*].delayTime "uniform(0.01s, 0.2s)"
param Network1.node[*].processingTime exponential(0.01s)
param Network1.node[*].lossProbability 0.5
param Reliability.node[*].transmissionTime "uniform(1s, 2s)"
param Reliability.node[*].delayTime "uniform(0.01s, 0.2s)"
param Reliability.node[*].processingTime exponential(0.01s)
param Reliability.node[*].lossProbability 0.0

vector 0 Network1.node[0] txVector ETV
vector 1 Network1.node[1] txVector ETV
vector 2 Network1.node[3] txVector ETV
vector 3 Network1.node[4] txVector ETV
vector 4 Network1.node[2] txVector ETV
vector 5 Network1.node[5] rxVector ETV
0	1	0.114651601831	0
0	15	1.185376482154	1
0	17	2.433264783886	2
0	19	3.526816279464	3
0	21	5.221639936626	4
0	23	6.36701008405	5
0	41	7.820182383595	6
0	47	9.126543010654	7
0	65	10.581150775611	8
0	71	12.390079975197	9
0	81	13.803798658842	10
0	83	15.366568755194	11
0	85	17.114726191921	12
0	87	18.72434985598	13
0	89	19.927704384852	14
0	107	21.581335237318	15
0	109	23.273968984441	16
0	111	24.719869425123	17
0	121	26.082209883792	18
0	135	27.925996979069	19
0	149	29.73301965401	20
0	151	30.939985789661	21
0	153	32.8657185741	22
0	155	34.143041623127	23
0	157	35.319103738362	24
0	159	37.309404926909	25
0	161	39.002055543311	26
0	179	40.754195573343	27
0	197	42.325480318232	28
0	199	43.870862935041	29
0	201	45.698885052069	30
0	219	46.932577061304	31
0	221	48.201384390076	32
0	223	50.08828251746	33
0	225	51.591537807672	34
0	227	53.163775427569	35
0	229	54.506195014412	36
0	235	56.115840729163	37
0	237	58.115816193004	38
0	239	59.383763947827	39
0	241	60.640970325866	40
0	259	61.917611872615	41
0	261	63.047270256631	42
0	275	64.907323719539	43
0	277	66.614755226137	44
0	279	67.954761151295	45
0	297	69.651511139074	46
0	299	71.05741012313	47
0	301	72.595873814845	48
0	303	74.245447073435	49
0	321	75.555408708123	50
0	327	76.857906999602	51
0	329	78.571511543659	52
0	335	79.809947841405	53
0	337	81.738446687884	54
0	355	83.101522967522	55
0	373	84.482451838744	56
0	375	85.504547653091	57
0	393	86.726923972671	58
0	395	88.627694777749	59
0	401	89.988778552809	60
0	403	91.272468002583	61
0	409	92.485362338205	62
0	411	94.478285895265	63
0	413	95.911820186605	64
0	419	97.528525473387	65
0	433	98.982837254251	66
0	435	100.214935643668	67
0	437	101.227691134973	68
0	439	102.502328604529	69
0	441	104.44424296806	70
0	443	105.721010884339	71
0	461	106.79679908913	72
0	463	108.573561123408	73
0	465	110.366883801598	74
0	483	112.001187271275	75
0	485	113.067057155142	76
0	487	114.393321160529	77
0	489	115.97725125316	78
0	491	117.077828965918	79
0	497	118.579752309318	80
0	503	120.418655716884	81
0	517	121.952250651852	82
0	523	123.808868810371	83
0	541	125.52424787993	84
0	547	127.347481437562	85
0	565	129.021811812719	86
0	583	130.253595735714	87
0	585	131.846069697127	88
0	603	133.743133304943	89
0	621	135.725938075524	90
0	623	137.175777000677	91
0	625	138.588208067067	92
0	627	140.554938282421	93
0	629	141.608945268508	94
0	631	143.331387471011	95
0	633	144.959412956214	96
0	635	146.36800280034	97
0	653	147.532602348434	98
0	655	149.214369090343	99
0	661	150.705430401558	100
0	679	151.715287225855	101
0	693	153.053932928316	102
0	707	154.089591080857	103
0	713	155.432270346511	104
0	715	157.387714719934	105
0	717	159.169617687421	106
0	735	160.70936843201	107
0	737	162.477117955754	108
0	739	163.537931613926	109
0	741	164.707033253344	110
0	759	166.009892807411	111
0	761	167.453450420009	112
0	771	168.942714411601	113
0	785	170.32006388537	114
0	787	172.03211831774	115
0	789	173.407180433463	116
0	791	174.971002182992	117
0	793	176.901623695459	118
0	799	178.66504362861	119
0	809	180.177467220531	120
0	811	181.722870785811	121
0	829	183.680341951151	122
0	847	184.856945390415	123
0	849	186.780812112449	124
0	863	187.820606265517	125
0	877	189.147099842152	126
0	895	190.69301529282	127
0	901	192.141668867387	128
0	903	193.305256901842	129
0	913	194.601852321832	130
0	931	196.233342278816	131
0	933	198.171580703298	132
0	947	199.469172139719	133
0	965	200.738431256564	134
0	967	202.383248311534	135
0	973	203.485725078565	136
0	975	204.882624744038	137
0	977	206.206458836394	138
0	979	207.681415681793	139
0	985	209.548423913839	140
0	987	211.393237387129	141
0	997	212.885734822667	142
0	1015	214.719420341375	143
0	1017	216.458780261521	144
0	1027	217.562035827032	145
0	1033	219.423201812031	146
0	1035	220.605449156435	147
0	1037	222.315042749578	148
0	1039	223.985065084249	149
0	1041	225.423099920219	150
0	1043	226.920167449229	151
0	1061	228.859625333986	152
0	1071	230.086345993747	153
0	1085	231.691263887865	154
0	1103	232.81559913193	155
0	1113	233.823216623926	156
0	1115	235.142048733841	157
0	1133	236.279451875083	158
0	1135	237.441032045588	159
0	1145	239.2507089433	160
1	3	0.14297423212	0
1	3	0.14297423212	1
1	3	0.14297423212	2
1	25	6.379438152841	3
1	25	6.379438152841	4
1	25	6.379438152841	5
1	43	7.83901626304	6
1	43	7.83901626304	7
1	43	7.83901626304	8
1	49	9.150717362913	9
1	49	9.150717362913	10
1	49	9.150717362913	11
1	67	10.596242228576	12
1	67	10.596242228576	13
1	67	10.596242228576	14
1	73	12.415551110815	15
1	73	12.415551110815	16
1	73	12.415551110815	17
1	91	19.948571803055	18
1	91	19.948571803055	19
1	91	19.948571803055	20
1	113	24.737128083983	21
1	113	24.737128083983	22
1	113	24.737128083983	23
1	123	26.098929442023	24
1	123	26.098929442023	25
1	123	26.098929442023	26
1	137	27.939846180679	27
1	137	27.939846180679	28
1	137	27.939846180679	29
1	163	39.013290975892	30
1	163	39.013290975892	31
1	163	39.013290975892	32
1	181	40.785491201427	33
1	181	40.785491201427	34
1	181	40.785491201427	35
1	203	45.711152523034	36
1	203	45.711152523034	37
1	203	45.711152523034	38
1	231	54.51748036613	39
1	231	54.51748036613	40
1	231	54.51748036613	41
1	243	60.653870393732	42
1	243	60.653870393732	43
1	243	60.653870393732	44
1	263	63.059734351569	45
1	263	63.059734351569	46
1	263	63.059734351569	47
1	281	67.978560605664	48
1	281	67.978560605664	49
1	281	67.978560605664	50
1	305	74.273857858787	51
1	305	74.273857858787	52
1	305	74.273857858787	53
1	323	75.566528327638	54
1	323	75.566528327638	55
1	323	75.566528327638	56
1	331	78.593473761682	57
1	331	78.593473761682	58
1	331	78.593473761682	59
1	339	81.764543933776	60
1	339	81.764543933776	61
1	339	81.764543933776	62
1	357	83.116764052005	63
1	357	83.116764052005	64
1	357	83.116764052005	65
1	377	85.518959804342	66
1	377	85.518959804342	67
1	377	85.518959804342	68
1	397	88.659242005058	69
1	397	88.659242005058	70
1	397	88.659242005058	71
1	405	91.287919870148	72
1	405	91.287919870148	73
1	405	91.287919870148	74
1	415	95.960489370894	75
1	415	95.960489370894	76
1	415	95.960489370894	77
1	421	97.543602726255	78
1	421	97.543602726255	79
1	421	97.543602726255	80
1	445	105.734217788927	81
1	445	105.734217788927	82
1	445	105.734217788927	83
1	467	110.39118171522	84
1	467	110.39118171522	85
1	467	110.39118171522	86
1	493	117.103973281213	87
1	493	117.103973281213	88
1	493	117.103973281213	89
1	499	118.601473051743	90
1	499	118.601473051743	91
1	499	118.601473051743	92
1	505	120.447263403273	93
1	505	120.447263403273	94
1	505	120.447263403273	95
1	519	121.978162998644	96
1	519	121.978162998644	97
1	519	121.978162998644	98
1	525	123.836580736803	99
1	525	123.836580736803	100
1	525	123.836580736803	101
1	543	125.534480801352	102
1	543	125.534480801352	103
1	543	125.534480801352	104
1	549	127.381380095742	105
1	549	127.381380095742	106
1	549	127.381380095742	107
1	567	129.054484859674	108
1	567	129.054484859674	109
1	567	129.054484859674	110
1	587	131.864017687764	111
1	587	131.864017687764	112
1	587	131.864017687764	113
1	605	133.762728307544	114
1	605	133.762728307544	115
1	605	133.762728307544	116
1	637	146.382525625187	117
1	637	146.382525625187	118
1	637	146.382525625187	119
1	657	149.238224854415	120
1	657	149.238224854415	121
1	657	149.238224854415	122
1	663	150.716297666361	123
1	663	150.716297666361	124
1	663	150.716297666361	125
1	681	151.732771793113	126
1	681	151.732771793113	127
1	681	151.732771793113	128
1	695	153.069270783438	129
1	695	153.069270783438	130
1	695	153.069270783438	131
1	709	154.099651835464	132
1	709	154.099651835464	133
1	709	154.099651835464	134
1	719	159.240530662316	135
1	719	159.240530662316	136
1	719	159.240530662316	137
1	743	164.717411694277	138
1	743	164.717411694277	139
1	743	164.717411694277	140
1	763	167.466846837793	141
1	763	167.466846837793	142
1	763	167.466846837793	143
1	773	168.962340176513	144
1	773	168.962340176513	145
1	773	168.962340176513	146
1	795	176.91799264571	147
1	795	176.91799264571	148
1	795	176.91799264571	149
1	801	178.686015275559	150
1	801	178.686015275559	151
1	801	178.686015275559	152
1	813	181.740881249955	153
1	813	181.740881249955	154
1	813	181.740881249955	155
1	831	183.699420758239	156
1	831	183.699420758239	157
1	831	183.699420758239	158
1	851	186.812769198881	159
1	851	186.812769198881	160
1	851	186.812769198881	161
1	865	187.834503669971	162
1	865	187.834503669971	163
1	865	187.834503669971	164
1	879	189.164058568585	165
1	879	189.164058568585	166
1	879	189.164058568585	167
1	897	190.723113594456	168
1	897	190.723113594456	169
1	897	190.723113594456	170
1	905	193.325356256101	171
1	905	193.325356256101	172
1	905	193.325356256101	173
1	915	194.623297581029	174
1	915	194.623297581029	175
1	915	194.623297581029	176
1	935	198.224197760338	177
1	935	198.224197760338	178
1	935	198.224197760338	179
1	949	199.511579320724	180
1	949	199.511579320724	181
1	949	199.511579320724	182
1	969	202.405846031056	183
1	969	202.405846031056	184
1	969	202.405846031056	185
1	981	207.71986227025	186
1	981	207.71986227025	187
1	981	207.71986227025	188
1	989	211.406370487738	189
1	989	211.406370487738	190
1	989	211.406370487738	191
1	999	212.901451871465	192
1	999	212.901451871465	193
1	999	212.901451871465	194
1	1019	216.47434718755	195
1	1019	216.47434718755	196
1	1019	216.47434718755	197
1	1029	217.585151056988	198
1	1029	217.585151056988	199
1	1029	217.585151056988	200
1	1045	226.968861397831	201
1	1045	226.968861397831	202
1	1045	226.968861397831	203
1	1063	228.906916316884	204
1	1063	228.906916316884	205
1	1063	228.906916316884	206
1	1073	230.116905634115	207
1	1073	230.116905634115	208
1	1073	230.116905634115	209
1	1087	231.704408930102	210
1	1087	231.704408930102	211
1	1087	231.704408930102	212
1	1105	232.83230734666	213
1	1105	232.83230734666	214
1	1105	232.83230734666	215
1	1117	235.163154320224	216
1	1117	235.163154320224	217
1	1117	235.163154320224	218
1	1137	237.456523154585	219
1	1137	237.456523154585	220
1	1137	237.456523154585	221
1	1147	239.262185582649	222
1	1147	239.262185582649	223
1	1147	239.262185582649	224
2	7	0.161397929952	0
2	7	0.161397929952	1
2	7	0.161397929952	2
2	29	6.396223417129	3
2	29	6.396223417129	4
2	29	6.396223417129	5
2	61	9.201924283806	6
2	61	9.201924283806	7
2	61	9.201924283806	8
2	95	19.961828792954	9
2	95	19.961828792954	10
2	95	19.961828792954	11
2	117	24.763649567173	12
2	117	24.763649567173	13
2	117	24.763649567173	14
2	127	26.112871832999	15
2	127	26.112871832999	16
2	127	26.112871832999	17
2	141	27.956432590978	18
2	141	27.956432590978	19
2	141	27.956432590978	20
2	167	39.03424588577	21
2	167	39.03424588577	22
2	167	39.03424588577	23
2	193	40.848480540641	24
2	193	40.848480540641	25
2	193	40.848480540641	26
2	207	45.740188694972	27
2	207	45.740188694972	28
2	207	45.740188694972	29
2	247	60.667083203006	30
2	247	60.667083203006	31
2	247	60.667083203006	32
2	267	63.07159805146	33
2	267	63.07159805146	34
2	267	63.07159805146	35
2	285	67.990280758092	36
2	285	67.990280758092	37
2	285	67.990280758092	38
2	309	74.296023026984	39
2	309	74.296023026984	40
2	309	74.296023026984	41
2	343	81.777819182036	42
2	343	81.777819182036	43
2	343	81.777819182036	44
2	361	83.132544443879	45
2	361	83.132544443879	46
2	361	83.132544443879	47
2	385	85.553495336585	48
2	385	85.553495336585	49
2	385	85.553495336585	50
2	429	97.569633223448	51
2	429	97.569633223448	52
2	429	97.569633223448	53
2	453	105.763323181915	54
2	453	105.763323181915	55
2	453	105.763323181915	56
2	475	110.428666091134	57
2	475	110.428666091134	58
2	475	110.428666091134	59
2	513	120.476717156386	60
2	513	120.476717156386	61
2	513	120.476717156386	62
2	533	123.880078061673	63
2	533	123.880078061673	64
2	533	123.880078061673	65
2	553	127.397863586226	66
2	553	127.397863586226	67
2	553	127.397863586226	68
2	575	129.08441812368	69
2	575	129.08441812368	70
2	575	129.08441812368	71
2	592	131.883408866816	72
2	592	131.883408866816	73
2	592	131.883408866816	74
2	609	133.780562953955	75
2	609	133.780562953955	76
2	609	133.780562953955	77
2	641	146.401873832104	78
2	641	146.401873832104	79
2	641	146.401873832104	80
2	671	150.737202241433	81
2	671	150.737202241433	82
2	671	150.737202241433	83
2	686	151.751315978687	84
2	686	151.751315978687	85
2	686	151.751315978687	86
2	699	153.07969584714	87
2	699	153.07969584714	88
2	699	153.07969584714	89
2	727	159.288082789574	90
2	727	159.288082789574	91
2	727	159.288082789574	92
2	748	164.737076497074	93
2	748	164.737076497074	94
2	748	164.737076497074	95
2	767	167.477933663758	96
2	767	167.477933663758	97
2	767	167.477933663758	98
2	777	168.977656971687	99
2	777	168.977656971687	100
2	777	168.977656971687	101
2	805	178.698968457929	102
2	805	178.698968457929	103
2	805	178.698968457929	104
2	825	181.802153899225	105
2	825	181.802153899225	106
2	825	181.802153899225	107
2	835	183.710274057856	108
2	835	183.710274057856	109
2	835	183.710274057856	110
2	855	186.823761636925	111
2	855	186.823761636925	112
2	855	186.823761636925	113
2	870	187.854186052117	114
2	870	187.854186052117	115
2	870	187.854186052117	116
2	887	189.186022863387	117
2	887	189.186022863387	118
2	887	189.186022863387	119
2	909	193.351077980653	120
2	909	193.351077980653	121
2	909	193.351077980653	122
2	923	194.645049229752	123
2	923	194.645049229752	124
2	923	194.645049229752	125
2	939	198.243407797355	126
2	939	198.243407797355	127
2	939	198.243407797355	128
2	957	199.536855818262	129
2	957	199.536855818262	130
2	957	199.536855818262	131
2	993	211.426704394459	132
2	993	211.426704394459	133
2	993	211.426704394459	134
2	1007	212.937490062718	135
2	1007	212.937490062718	136
2	1007	212.937490062718	137
2	1057	227.037133151278	138
2	1057	227.037133151278	139
2	1057	227.037133151278	140
2	1077	230.149900589619	141
2	1077	230.149900589619	142
2	1077	230.149900589619	143
2	1099	231.74977576103	144
2	1099	231.74977576103	145
2	1099	231.74977576103	146
2	1125	235.191921083919	147
2	1125	235.191921083919	148
2	1125	235.191921083919	149
2	1141	237.492209607863	150
2	1141	237.492209607863	151
2	1141	237.492209607863	152
2	1151	239.281348795414	153
2	1151	239.281348795414	154
2	1151	239.281348795414	155
3	11	0.171587189773	0
3	11	0.171587189773	1
3	11	0.171587189773	2
3	34	6.414407212985	3
3	34	6.414407212985	4
3	34	6.414407212985	5
3	57	9.179285195998	6
3	57	9.179285195998	7
3	57	9.179285195998	8
3	103	19.974154088256	9
3	103	19.974154088256	10
3	103	19.974154088256	11
3	145	27.973476169999	12
3	145	27.973476169999	13
3	145	27.973476169999	14
3	171	39.048734581011	15
3	171	39.048734581011	16
3	171	39.048734581011	17
3	189	40.834747023481	18
3	189	40.834747023481	19
3	189	40.834747023481	20
3	215	45.773654598168	21
3	215	45.773654598168	22
3	215	45.773654598168	23
3	255	60.708421546638	24
3	255	60.708421546638	25
3	255	60.708421546638	26
3	293	68.025061466647	27
3	293	68.025061466647	28
3	293	68.025061466647	29
3	313	74.310606987298	30
3	313	74.310606987298	31
3	313	74.310606987298	32
3	351	81.789326702156	33
3	351	81.789326702156	34
3	351	81.789326702156	35
3	369	83.172211548599	36
3	369	83.172211548599	37
3	369	83.172211548599	38
3	389	85.566539243429	39
3	389	85.566539243429	40
3	389	85.566539243429	41
3	454	105.767807841237	42
3	454	105.767807841237	43
3	454	105.767807841237	44
3	479	110.453325256002	45
3	479	110.453325256002	46
3	479	110.453325256002	47
3	537	123.890622359758	48
3	537	123.890622359758	49
3	537	123.890622359758	50
3	561	127.418104325959	51
3	561	127.418104325959	52
3	561	127.418104325959	53
3	579	129.097213158978	54
3	579	129.097213158978	55
3	579	129.097213158978	56
3	599	131.903320145214	57
3	599	131.903320145214	58
3	599	131.903320145214	59
3	617	133.799259905407	60
3	617	133.799259905407	61
3	617	133.799259905407	62
3	645	146.416900105154	63
3	645	146.416900105154	64
3	645	146.416900105154	65
3	675	150.750302739909	66
3	675	150.750302739909	67
3	675	150.750302739909	68
3	731	159.304644458982	69
3	731	159.304644458982	70
3	731	159.304644458982	71
3	755	164.752218561867	72
3	755	164.752218561867	73
3	755	164.752218561867	74
3	821	181.775042005605	75
3	821	181.775042005605	76
3	821	181.775042005605	77
3	840	183.721839388521	78
3	840	183.721839388521	79
3	840	183.721839388521	80
3	891	189.196413156593	81
3	891	189.196413156593	82
3	891	189.196413156593	83
3	927	194.66597734079	84
3	927	194.66597734079	85
3	927	194.66597734079	86
3	943	198.267838862691	87
3	943	198.267838862691	88
3	943	198.267838862691	89
3	958	199.544512319079	90
3	958	199.544512319079	91
3	958	199.544512319079	92
3	1008	212.943982112282	93
3	1008	212.943982112282	94
3	1008	212.943982112282	95
3	1053	227.019051754206	96
3	1053	227.019051754206	97
3	1053	227.019051754206	98
3	1081	230.161712823749	99
3	1081	230.161712823749	100
3	1081	230.161712823749	101
3	1095	231.737289567255	102
3	1095	231.737289567255	103
3	1095	231.737289567255	104
3	1129	235.20196372105	105
3	1129	235.20196372105	106
3	1129	235.20196372105	107
4	33	6.406466158433	0
4	33	6.406466158433	1
4	33	6.406466158433	2
4	53	9.164375435678	3
4	53	9.164375435678	4
4	53	9.164375435678	5
4	77	12.430038461203	6
4	77	12.430038461203	7
4	77	12.430038461203	8
4	96	19.961905403947	9
4	96	19.961905403947	10
4	96	19.961905403947	11
4	128	26.117434328341	12
4	128	26.117434328341	13
4	128	26.117434328341	14
4	175	39.06620240262	15
4	175	39.06620240262	16
4	175	39.06620240262	17
4	185	40.813949336902	18
4	185	40.813949336902	19
4	185	40.813949336902	20
4	211	45.756943221415	21
4	211	45.756943221415	22
4	211	45.756943221415	23
4	248	60.670390029575	24
4	248	60.670390029575	25
4	248	60.670390029575	26
4	271	63.087902812487	27
4	271	63.087902812487	28
4	271	63.087902812487	29
4	289	68.002073059849	30
4	289	68.002073059849	31
4	289	68.002073059849	32
4	317	74.341645246641	33
4	317	74.341645246641	34
4	317	74.341645246641	35
4	344	81.778322233689	36
4	344	81.778322233689	37
4	344	81.778322233689	38
4	365	83.146746585179	39
4	365	83.146746585179	40
4	365	83.146746585179	41
4	381	85.536232727148	42
4	381	85.536232727148	43
4	381	85.536232727148	44
4	425	97.556825578393	45
4	425	97.556825578393	46
4	425	97.556825578393	47
4	449	105.752849160477	48
4	449	105.752849160477	49
4	449	105.752849160477	50
4	471	110.406463471352	51
4	471	110.406463471352	52
4	471	110.406463471352	53
4	509	120.463531251556	54
4	509	120.463531251556	55
4	509	120.463531251556	56
4	529	123.861722160603	57
4	529	123.861722160603	58
4	529	123.861722160603	59
4	554	127.404672591082	60
4	554	127.404672591082	61
4	554	127.404672591082	62
4	571	129.067364199916	63
4	571	129.067364199916	64
4	571	129.067364199916	65
4	591	131.874774810543	66
4	591	131.874774810543	67
4	591	131.874774810543	68
4	610	133.783244893412	69
4	610	133.783244893412	70
4	610	133.783244893412	71
4	649	146.434079699174	72
4	649	146.434079699174	73
4	649	146.434079699174	74
4	667	150.726800670857	75
4	667	150.726800670857	76
4	667	150.726800670857	77
4	685	151.747024416464	78
4	685	151.747024416464	79
4	685	151.747024416464	80
4	700	153.08075902552	81
4	700	153.08075902552	82
4	700	153.08075902552	83
4	723	159.259037113452	84
4	723	159.259037113452	85
4	723	159.259037113452	86
4	747	164.736657450414	87
4	747	164.736657450414	88
4	747	164.736657450414	89
4	778	168.984923831947	90
4	778	168.984923831947	91
4	778	168.984923831947	92
4	817	181.764276610757	93
4	817	181.764276610757	94
4	817	181.764276610757	95
4	836	183.715498283137	96
4	836	183.715498283137	97
4	836	183.715498283137	98
4	859	186.835718926696	99
4	859	186.835718926696	100
4	859	186.835718926696	101
4	869	187.848960528682	102
4	869	187.848960528682	103
4	869	187.848960528682	104
4	883	189.175588745117	105
4	883	189.175588745117	106
4	883	189.175588745117	107
4	919	194.634426636078	108
4	919	194.634426636078	109
4	919	194.634426636078	110
4	953	199.525481467364	111
4	953	199.525481467364	112
4	953	199.525481467364	113
4	1003	212.919051614223	114
4	1003	212.919051614223	115
4	1003	212.919051614223	116
4	1023	216.495686657375	117
4	1023	216.495686657375	118
4	1023	216.495686657375	119
4	1049	226.993241587867	120
4	1049	226.993241587867	121
4	1049	226.993241587867	122
4	1067	228.920420206825	123
4	1067	228.920420206825	124
4	1067	228.920420206825	125
4	1091	231.725744851757	126
4	1091	231.725744851757	127
4	1091	231.725744851757	128
4	1109	232.85896407604	129
4	1109	232.85896407604	130
4	1109	232.85896407604	131
4	1121	235.179351768062	132
4	1121	235.179351768062	133
4	1121	235.179351768062	134
4	1152	239.288032529665	135
4	1152	239.288032529665	136
4	1152	239.288032529665	137
5	148	27.983476169999	0
5	218	45.783654598168	1
5	296	68.035061466647	2
5	354	81.799326702156	3
5	460	105.777807841237	4
5	482	110.463325256002	5
5	564	127.428104325959	6
5	582	129.107213158978	7
5	620	133.809259905407	8
5	648	146.426900105154	9
5	678	150.760302739909	10
5	894	189.206413156593	11
5	946	198.277838862691	12
5	1014	212.953982112282	13
5	1132	235.21196372105	14

