version 2
run General-4-20231008-06:26:05-15741
attr configname General
attr datetime 20231008-06:26:05
attr experiment General
attr inifile omnetpp.ini
attr iterationvars ""
attr iterationvarsf ""
attr measurement ""
attr network Network1
attr processid 15741
attr repetition 4
attr replication #4
attr resultdir results
attr runnumber 4
attr seedset 4
param Network1.node[*].transmissionTime "uniform(1s, 2s)"
param Network1.node[*].delayTime "uniform(0.01s, 0.2s)"
param Network1.node[*].processingTime exponential(0.01s)
param Network1.node[*].lossProbability 0.5
param Reliability.node[*].transmissionTime "uniform(1s, 2s)"
param Reliability.node[*].delayTime "uniform(0.01s, 0.2s)"
param Reliability.node[*].processingTime exponential(0.01s)
param Reliability.node[*].lossProbability 0.0

vector 0 Network1.node[0] txVector ETV
vector 1 Network1.node[1] txVector ETV
vector 2 Network1.node[3] txVector ETV
vector 3 Network1.node[2] txVector ETV
vector 4 Network1.node[4] txVector ETV
vector 5 Network1.node[5] rxVector ETV
0	1	0.193735669288	0
0	15	2.094357123985	1
0	17	3.792777363365	2
0	19	5.695955889686	3
0	37	7.328918989203	4
0	51	8.972833252433	5
0	69	10.038542791191	6
0	83	11.267305461378	7
0	101	12.490337981996	8
0	103	14.419744636784	9
0	109	15.655885959197	10
0	111	16.731592334494	11
0	129	18.417180537865	12
0	139	20.150621682791	13
0	149	21.245819760174	14
0	167	23.189770433274	15
0	185	25.119139033523	16
0	191	27.046547643994	17
0	193	29.014227273329	18
0	195	30.334842920224	19
0	201	32.220640013148	20
0	203	33.357565831314	21
0	205	34.470076166946	22
0	223	35.542359422581	23
0	241	37.004688784867	24
0	251	38.566157248957	25
0	253	40.2284596841	26
0	271	41.812003215697	27
0	273	43.446572709984	28
0	275	44.938360347568	29
0	281	46.869774615082	30
0	299	48.27941010419	31
0	301	50.170397843623	32
0	303	51.486674349445	33
0	309	53.240529799291	34
0	327	54.467510818659	35
0	345	55.889876764889	36
0	351	57.295090329058	37
0	353	58.608456955214	38
0	355	60.598573875303	39
0	357	62.4826162622	40
0	359	63.502558621966	41
0	361	64.605353862435	42
0	363	65.699434504999	43
0	365	66.965231831107	44
0	383	68.160179518783	45
0	393	69.907427961859	46
0	399	71.854865095033	47
0	401	73.82656841624	48
0	403	74.870490924375	49
0	409	76.155735518005	50
0	411	77.580527774211	51
0	413	79.336177063327	52
0	415	80.587675529452	53
0	417	82.451022651898	54
0	431	84.038657058183	55
0	449	85.146648251371	56
0	459	86.582819256152	57
0	473	88.133094481111	58
0	475	89.329118874541	59
0	477	90.782948113198	60
0	487	92.132679210894	61
0	489	93.423519064125	62
0	491	95.169346628163	63
0	497	97.121015220333	64
0	511	98.625875072938	65
0	529	100.423969116213	66
0	531	102.239135505783	67
0	549	103.90439227937	68
0	563	105.169308002491	69
0	581	106.202367470053	70
0	583	107.301566765097	71
0	593	109.26316994956	72
0	595	111.113235084957	73
0	597	112.605551012477	74
0	599	114.585988549899	75
0	613	116.245024077046	76
0	631	117.775950944434	77
0	645	119.686707239981	78
0	663	120.809157187269	79
0	673	122.320653589825	80
0	687	123.992234705399	81
0	705	125.283849028089	82
0	707	126.412558523157	83
0	709	128.3307418245	84
0	727	129.62228558018	85
0	745	131.009577136404	86
0	747	132.403665942756	87
0	757	134.107931072508	88
0	763	135.549390592995	89
0	765	137.430427828954	90
0	783	138.745011474156	91
0	801	140.426950680242	92
0	803	141.941774480428	93
0	805	143.506631585687	94
0	823	144.625776481965	95
0	829	145.688049175694	96
0	831	147.577705014647	97
0	849	148.635316817007	98
0	855	150.445495494791	99
0	861	152.306818827205	100
0	863	153.352992865872	101
0	869	154.449843288316	102
0	875	156.343869003151	103
0	877	158.166181945391	104
0	887	160.041359373517	105
0	893	161.270083152838	106
0	895	162.617290564496	107
0	913	164.331791652283	108
0	919	165.972820099593	109
0	929	167.744518206139	110
0	931	168.805898224852	111
0	949	170.022341112989	112
0	951	171.465206343132	113
0	965	173.169702700256	114
0	975	174.457825510447	115
0	993	176.387744793586	116
0	995	177.688297042075	117
0	1013	179.533683533931	118
0	1031	180.780977373628	119
0	1033	182.776766372763	120
0	1035	184.469598717906	121
0	1037	186.241914060118	122
0	1039	188.016253542772	123
0	1041	189.081252213719	124
0	1051	190.841774607694	125
0	1053	192.085153914673	126
0	1055	193.860078551724	127
0	1073	195.308758677134	128
0	1087	197.142570595175	129
0	1093	198.987299788661	130
0	1111	200.606950136751	131
0	1113	202.111862473806	132
0	1119	203.474411667475	133
0	1125	205.367759629769	134
0	1127	206.398331394337	135
0	1145	207.637076047633	136
0	1147	209.395204470644	137
0	1153	211.123549810063	138
0	1171	212.690110787202	139
0	1181	214.136444408365	140
0	1183	215.746365575504	141
0	1185	217.723788990558	142
0	1199	218.946511275752	143
0	1201	220.733678526164	144
0	1215	222.3289497133	145
0	1217	224.126798148186	146
0	1219	225.417279972614	147
0	1221	226.528652127751	148
0	1223	228.018076859799	149
0	1237	229.066726347583	150
0	1239	230.538667348132	151
0	1241	232.258954217576	152
0	1243	233.31614693735	153
0	1257	234.330614164157	154
0	1275	235.754418210277	155
0	1277	237.402511079946	156
0	1279	238.427577366737	157
0	1293	239.654439647134	158
1	3	0.205631491707	0
1	3	0.205631491707	1
1	3	0.205631491707	2
1	21	5.706007614728	3
1	21	5.706007614728	4
1	21	5.706007614728	5
1	39	7.355582358336	6
1	39	7.355582358336	7
1	39	7.355582358336	8
1	53	8.984767416024	9
1	53	8.984767416024	10
1	53	8.984767416024	11
1	71	10.050914969445	12
1	71	10.050914969445	13
1	71	10.050914969445	14
1	85	11.278799179928	15
1	85	11.278799179928	16
1	85	11.278799179928	17
1	105	14.446399690892	18
1	105	14.446399690892	19
1	105	14.446399690892	20
1	113	16.770980945233	21
1	113	16.770980945233	22
1	113	16.770980945233	23
1	131	18.43918635766	24
1	131	18.43918635766	25
1	131	18.43918635766	26
1	141	20.16307340552	27
1	141	20.16307340552	28
1	141	20.16307340552	29
1	151	21.257597539783	30
1	151	21.257597539783	31
1	151	21.257597539783	32
1	169	23.201150823887	33
1	169	23.201150823887	34
1	169	23.201150823887	35
1	187	25.131091982784	36
1	187	25.131091982784	37
1	187	25.131091982784	38
1	197	30.352725786083	39
1	197	30.352725786083	40
1	197	30.352725786083	41
1	207	34.482223446044	42
1	207	34.482223446044	43
1	207	34.482223446044	44
1	225	35.553931369482	45
1	225	35.553931369482	46
1	225	35.553931369482	47
1	243	37.014793598972	48
1	243	37.014793598972	49
1	243	37.014793598972	50
1	255	40.251437502754	51
1	255	40.251437502754	52
1	255	40.251437502754	53
1	277	44.975832494846	54
1	277	44.975832494846	55
1	277	44.975832494846	56
1	283	46.896426083212	57
1	283	46.896426083212	58
1	283	46.896426083212	59
1	305	51.499948728306	60
1	305	51.499948728306	61
1	305	51.499948728306	62
1	311	53.265400746704	63
1	311	53.265400746704	64
1	311	53.265400746704	65
1	329	54.498472863547	66
1	329	54.498472863547	67
1	329	54.498472863547	68
1	347	55.930236147081	69
1	347	55.930236147081	70
1	347	55.930236147081	71
1	367	66.980242834011	72
1	367	66.980242834011	73
1	367	66.980242834011	74
1	385	68.171055820458	75
1	385	68.171055820458	76
1	385	68.171055820458	77
1	395	69.920111699627	78
1	395	69.920111699627	79
1	395	69.920111699627	80
1	405	74.883644391024	81
1	405	74.883644391024	82
1	405	74.883644391024	83
1	419	82.473337629337	84
1	419	82.473337629337	85
1	419	82.473337629337	86
1	433	84.049606676559	87
1	433	84.049606676559	88
1	433	84.049606676559	89
1	451	85.170008480528	90
1	451	85.170008480528	91
1	451	85.170008480528	92
1	461	86.608521455979	93
1	461	86.608521455979	94
1	461	86.608521455979	95
1	479	90.794975641663	96
1	479	90.794975641663	97
1	479	90.794975641663	98
1	493	95.190217070703	99
1	493	95.190217070703	100
1	493	95.190217070703	101
1	499	97.131965742665	102
1	499	97.131965742665	103
1	499	97.131965742665	104
1	513	98.640269765317	105
1	513	98.640269765317	106
1	513	98.640269765317	107
1	533	102.250731274589	108
1	533	102.250731274589	109
1	533	102.250731274589	110
1	551	103.935712401797	111
1	551	103.935712401797	112
1	551	103.935712401797	113
1	565	105.181626856797	114
1	565	105.181626856797	115
1	565	105.181626856797	116
1	585	107.316335496232	117
1	585	107.316335496232	118
1	585	107.316335496232	119
1	601	114.599169200067	120
1	601	114.599169200067	121
1	601	114.599169200067	122
1	615	116.25503764496	123
1	615	116.25503764496	124
1	615	116.25503764496	125
1	633	117.803058015398	126
1	633	117.803058015398	127
1	633	117.803058015398	128
1	647	119.697766151406	129
1	647	119.697766151406	130
1	647	119.697766151406	131
1	665	120.832844413022	132
1	665	120.832844413022	133
1	665	120.832844413022	134
1	675	122.33405623204	135
1	675	122.33405623204	136
1	675	122.33405623204	137
1	689	124.005040868735	138
1	689	124.005040868735	139
1	689	124.005040868735	140
1	711	128.341955973089	141
1	711	128.341955973089	142
1	711	128.341955973089	143
1	729	129.640794505745	144
1	729	129.640794505745	145
1	729	129.640794505745	146
1	749	132.439320169962	147
1	749	132.439320169962	148
1	749	132.439320169962	149
1	759	134.155119057273	150
1	759	134.155119057273	151
1	759	134.155119057273	152
1	767	137.440829001919	153
1	767	137.440829001919	154
1	767	137.440829001919	155
1	785	138.763179900229	156
1	785	138.763179900229	157
1	785	138.763179900229	158
1	807	143.516834241157	159
1	807	143.516834241157	160
1	807	143.516834241157	161
1	825	144.638203062092	162
1	825	144.638203062092	163
1	825	144.638203062092	164
1	833	147.598361657489	165
1	833	147.598361657489	166
1	833	147.598361657489	167
1	851	148.645474651004	168
1	851	148.645474651004	169
1	851	148.645474651004	170
1	857	150.457953901567	171
1	857	150.457953901567	172
1	857	150.457953901567	173
1	865	153.369611056685	174
1	865	153.369611056685	175
1	865	153.369611056685	176
1	871	154.464874921166	177
1	871	154.464874921166	178
1	871	154.464874921166	179
1	879	158.187200148947	180
1	879	158.187200148947	181
1	879	158.187200148947	182
1	889	160.066070065818	183
1	889	160.066070065818	184
1	889	160.066070065818	185
1	897	162.637991105815	186
1	897	162.637991105815	187
1	897	162.637991105815	188
1	915	164.35438563953	189
1	915	164.35438563953	190
1	915	164.35438563953	191
1	921	165.997694832733	192
1	921	165.997694832733	193
1	921	165.997694832733	194
1	933	168.831971945733	195
1	933	168.831971945733	196
1	933	168.831971945733	197
1	953	171.475921678177	198
1	953	171.475921678177	199
1	953	171.475921678177	200
1	967	173.184387218318	201
1	967	173.184387218318	202
1	967	173.184387218318	203
1	977	174.4740912437	204
1	977	174.4740912437	205
1	977	174.4740912437	206
1	997	177.766025958042	207
1	997	177.766025958042	208
1	997	177.766025958042	209
1	1015	179.549836026001	210
1	1015	179.549836026001	211
1	1015	179.549836026001	212
1	1043	189.1068755371	213
1	1043	189.1068755371	214
1	1043	189.1068755371	215
1	1057	193.883142182111	216
1	1057	193.883142182111	217
1	1057	193.883142182111	218
1	1075	195.328971857417	219
1	1075	195.328971857417	220
1	1075	195.328971857417	221
1	1089	197.155941701876	222
1	1089	197.155941701876	223
1	1089	197.155941701876	224
1	1095	199.003392324094	225
1	1095	199.003392324094	226
1	1095	199.003392324094	227
1	1115	202.126029719482	228
1	1115	202.126029719482	229
1	1115	202.126029719482	230
1	1121	203.516534762514	231
1	1121	203.516534762514	232
1	1121	203.516534762514	233
1	1129	206.409089212935	234
1	1129	206.409089212935	235
1	1129	206.409089212935	236
1	1149	209.405564554094	237
1	1149	209.405564554094	238
1	1149	209.405564554094	239
1	1155	211.140525221268	240
1	1155	211.140525221268	241
1	1155	211.140525221268	242
1	1173	212.713235801178	243
1	1173	212.713235801178	244
1	1173	212.713235801178	245
1	1187	217.758074420329	246
1	1187	217.758074420329	247
1	1187	217.758074420329	248
1	1203	220.759404980627	249
1	1203	220.759404980627	250
1	1203	220.759404980627	251
1	1225	228.036677495008	252
1	1225	228.036677495008	253
1	1225	228.036677495008	254
1	1245	233.330743252095	255
1	1245	233.330743252095	256
1	1245	233.330743252095	257
1	1259	234.342193713166	258
1	1259	234.342193713166	259
1	1259	234.342193713166	260
1	1281	238.445213053123	261
1	1281	238.445213053123	262
1	1281	238.445213053123	263
1	1295	239.676488617451	264
1	1295	239.676488617451	265
1	1295	239.676488617451	266
2	7	0.227595799025	0
2	7	0.227595799025	1
2	7	0.227595799025	2
2	33	5.757764511425	3
2	33	5.757764511425	4
2	33	5.757764511425	5
2	43	7.365988290648	6
2	43	7.365988290648	7
2	43	7.365988290648	8
2	57	9.000017402857	9
2	57	9.000017402857	10
2	57	9.000017402857	11
2	75	10.06471464231	12
2	75	10.06471464231	13
2	75	10.06471464231	14
2	93	11.307952046917	15
2	93	11.307952046917	16
2	93	11.307952046917	17
2	117	16.801877648071	18
2	117	16.801877648071	19
2	117	16.801877648071	20
2	155	21.272117610803	21
2	155	21.272117610803	22
2	155	21.272117610803	23
2	174	23.227765740034	24
2	174	23.227765740034	25
2	174	23.227765740034	26
2	211	34.513162328528	27
2	211	34.513162328528	28
2	211	34.513162328528	29
2	229	35.577923628918	30
2	229	35.577923628918	31
2	229	35.577923628918	32
2	247	37.025169180123	33
2	247	37.025169180123	34
2	247	37.025169180123	35
2	263	40.287974045221	36
2	263	40.287974045221	37
2	263	40.287974045221	38
2	291	46.94443343565	39
2	291	46.94443343565	40
2	291	46.94443343565	41
2	315	53.279554786368	42
2	315	53.279554786368	43
2	315	53.279554786368	44
2	338	54.554059091421	45
2	338	54.554059091421	46
2	338	54.554059091421	47
2	375	67.011103307655	48
2	375	67.011103307655	49
2	375	67.011103307655	50
2	423	82.484803566269	51
2	423	82.484803566269	52
2	423	82.484803566269	53
2	441	84.128171312545	54
2	441	84.128171312545	55
2	441	84.128171312545	56
2	465	86.619831536044	57
2	465	86.619831536044	58
2	465	86.619831536044	59
2	507	97.163921234932	60
2	507	97.163921234932	61
2	507	97.163921234932	62
2	517	98.651706992353	63
2	517	98.651706992353	64
2	517	98.651706992353	65
2	542	102.280930432631	66
2	542	102.280930432631	67
2	542	102.280930432631	68
2	559	103.990145749654	69
2	559	103.990145749654	70
2	559	103.990145749654	71
2	570	105.20215516759	72
2	570	105.20215516759	73
2	570	105.20215516759	74
2	589	107.326841324073	75
2	589	107.326841324073	76
2	589	107.326841324073	77
2	627	116.30940599441	78
2	627	116.30940599441	79
2	627	116.30940599441	80
2	637	117.81836687593	81
2	637	117.81836687593	82
2	637	117.81836687593	83
2	656	119.726619800278	84
2	656	119.726619800278	85
2	656	119.726619800278	86
2	669	120.892450311347	87
2	669	120.892450311347	88
2	669	120.892450311347	89
2	679	122.344865825014	90
2	679	122.344865825014	91
2	679	122.344865825014	92
2	697	124.028602072671	93
2	697	124.028602072671	94
2	697	124.028602072671	95
2	716	128.359228117707	96
2	716	128.359228117707	97
2	716	128.359228117707	98
2	733	129.656789149726	99
2	733	129.656789149726	100
2	733	129.656789149726	101
2	753	132.454638396558	102
2	753	132.454638396558	103
2	753	132.454638396558	104
2	772	137.454227167076	105
2	772	137.454227167076	106
2	772	137.454227167076	107
2	789	138.785000203058	108
2	789	138.785000203058	109
2	789	138.785000203058	110
2	816	143.54867241208	111
2	816	143.54867241208	112
2	816	143.54867241208	113
2	837	147.610978762582	114
2	837	147.610978762582	115
2	837	147.610978762582	116
2	906	162.688556644423	117
2	906	162.688556644423	118
2	906	162.688556644423	119
2	938	168.848794722058	120
2	938	168.848794722058	121
2	938	168.848794722058	122
2	961	171.513616598669	123
2	961	171.513616598669	124
2	961	171.513616598669	125
2	981	174.485779829264	126
2	981	174.485779829264	127
2	981	174.485779829264	128
2	1001	177.786781726529	129
2	1001	177.786781726529	130
2	1001	177.786781726529	131
2	1019	179.56365930993	132
2	1019	179.56365930993	133
2	1019	179.56365930993	134
2	1069	193.957208807208	135
2	1069	193.957208807208	136
2	1069	193.957208807208	137
2	1099	199.03291955327	138
2	1099	199.03291955327	139
2	1099	199.03291955327	140
2	1133	206.425638770876	141
2	1133	206.425638770876	142
2	1133	206.425638770876	143
2	1160	211.162512686333	144
2	1160	211.162512686333	145
2	1160	211.162512686333	146
2	1191	217.786589050297	147
2	1191	217.786589050297	148
2	1191	217.786589050297	149
2	1211	220.808390449649	150
2	1211	220.808390449649	151
2	1211	220.808390449649	152
2	1229	228.049939292556	153
2	1229	228.049939292556	154
2	1229	228.049939292556	155
2	1250	233.342229862262	156
2	1250	233.342229862262	157
2	1250	233.342229862262	158
2	1267	234.40253610479	159
2	1267	234.40253610479	160
2	1267	234.40253610479	161
2	1299	239.691110296555	162
2	1299	239.691110296555	163
2	1299	239.691110296555	164
3	8	0.228177698444	0
3	8	0.228177698444	1
3	8	0.228177698444	2
3	25	5.735884864493	3
3	25	5.735884864493	4
3	25	5.735884864493	5
3	47	7.396109058114	6
3	47	7.396109058114	7
3	47	7.396109058114	8
3	58	9.007986730781	9
3	58	9.007986730781	10
3	58	9.007986730781	11
3	89	11.293508432755	12
3	89	11.293508432755	13
3	89	11.293508432755	14
3	121	16.835381502498	15
3	121	16.835381502498	16
3	121	16.835381502498	17
3	135	18.450070972254	18
3	135	18.450070972254	19
3	135	18.450070972254	20
3	145	20.180303985835	21
3	145	20.180303985835	22
3	145	20.180303985835	23
3	156	21.277131310908	24
3	156	21.277131310908	25
3	156	21.277131310908	26
3	173	23.217840007435	27
3	173	23.217840007435	28
3	173	23.217840007435	29
3	216	34.536367346642	30
3	216	34.536367346642	31
3	216	34.536367346642	32
3	233	35.593176708513	33
3	233	35.593176708513	34
3	233	35.593176708513	35
3	259	40.272151890425	36
3	259	40.272151890425	37
3	259	40.272151890425	38
3	287	46.932437153021	39
3	287	46.932437153021	40
3	287	46.932437153021	41
3	316	53.287055362141	42
3	316	53.287055362141	43
3	316	53.287055362141	44
3	333	54.543105973612	45
3	333	54.543105973612	46
3	333	54.543105973612	47
3	371	66.996132961767	48
3	371	66.996132961767	49
3	371	66.996132961767	50
3	389	68.186298007394	51
3	389	68.186298007394	52
3	389	68.186298007394	53
3	427	82.499453069833	54
3	427	82.499453069833	55
3	427	82.499453069833	56
3	437	84.092243661318	57
3	437	84.092243661318	58
3	437	84.092243661318	59
3	455	85.190793466869	60
3	455	85.190793466869	61
3	455	85.190793466869	62
3	466	86.621798910639	63
3	466	86.621798910639	64
3	466	86.621798910639	65
3	483	90.813354341994	66
3	483	90.813354341994	67
3	483	90.813354341994	68
3	503	97.142142634699	69
3	503	97.142142634699	70
3	503	97.142142634699	71
3	521	98.66430498886	72
3	521	98.66430498886	73
3	521	98.66430498886	74
3	537	102.266540162566	75
3	537	102.266540162566	76
3	537	102.266540162566	77
3	555	103.966650363109	78
3	555	103.966650363109	79
3	555	103.966650363109	80
3	569	105.198675149624	81
3	569	105.198675149624	82
3	569	105.198675149624	83
3	605	114.615648125367	84
3	605	114.615648125367	85
3	605	114.615648125367	86
3	619	116.280943040171	87
3	619	116.280943040171	88
3	619	116.280943040171	89
3	641	117.834081063055	90
3	641	117.834081063055	91
3	641	117.834081063055	92
3	651	119.708422608068	93
3	651	119.708422608068	94
3	651	119.708422608068	95
3	680	122.34973316666	96
3	680	122.34973316666	97
3	680	122.34973316666	98
3	693	124.017965972847	99
3	693	124.017965972847	100
3	693	124.017965972847	101
3	715	128.352173010246	102
3	715	128.352173010246	103
3	715	128.352173010246	104
3	741	129.696086134608	105
3	741	129.696086134608	106
3	741	129.696086134608	107
3	771	137.451681466049	108
3	771	137.451681466049	109
3	771	137.451681466049	110
3	793	138.806252099472	111
3	793	138.806252099472	112
3	793	138.806252099472	113
3	811	143.528131201763	114
3	811	143.528131201763	115
3	811	143.528131201763	116
3	838	147.614150457339	117
3	838	147.614150457339	118
3	838	147.614150457339	119
3	883	158.201410307016	120
3	883	158.201410307016	121
3	883	158.201410307016	122
3	901	162.662483166124	123
3	901	162.662483166124	124
3	901	162.662483166124	125
3	925	166.016239736428	126
3	925	166.016239736428	127
3	925	166.016239736428	128
3	937	168.846869208252	129
3	937	168.846869208252	130
3	937	168.846869208252	131
3	957	171.492042129274	132
3	957	171.492042129274	133
3	957	171.492042129274	134
3	971	173.205533306204	135
3	971	173.205533306204	136
3	971	173.205533306204	137
3	982	174.48745796105	138
3	982	174.48745796105	139
3	982	174.48745796105	140
3	1005	177.797196846722	141
3	1005	177.797196846722	142
3	1005	177.797196846722	143
3	1020	179.565907242076	144
3	1020	179.565907242076	145
3	1020	179.565907242076	146
3	1047	189.11706299213	147
3	1047	189.11706299213	148
3	1047	189.11706299213	149
3	1061	193.894571514925	150
3	1061	193.894571514925	151
3	1061	193.894571514925	152
3	1079	195.340908860159	153
3	1079	195.340908860159	154
3	1079	195.340908860159	155
3	1103	199.052072746529	156
3	1103	199.052072746529	157
3	1103	199.052072746529	158
3	1138	206.45123822473	159
3	1138	206.45123822473	160
3	1138	206.45123822473	161
3	1159	211.15880295332	162
3	1159	211.15880295332	163
3	1159	211.15880295332	164
3	1177	212.727944880263	165
3	1177	212.727944880263	166
3	1177	212.727944880263	167
3	1195	217.797675161344	168
3	1195	217.797675161344	169
3	1195	217.797675161344	170
3	1207	220.774161335089	171
3	1207	220.774161335089	172
3	1207	220.774161335089	173
3	1233	228.064372563739	174
3	1233	228.064372563739	175
3	1233	228.064372563739	176
3	1249	233.341067362083	177
3	1249	233.341067362083	178
3	1249	233.341067362083	179
3	1263	234.37602111712	180
3	1263	234.37602111712	181
3	1263	234.37602111712	182
3	1285	238.458407276699	183
3	1285	238.458407276699	184
3	1285	238.458407276699	185
3	1300	239.692710011184	186
3	1300	239.692710011184	187
3	1300	239.692710011184	188
4	29	5.747674244295	0
4	29	5.747674244295	1
4	29	5.747674244295	2
4	65	9.037754750235	3
4	65	9.037754750235	4
4	65	9.037754750235	5
4	79	10.079420575281	6
4	79	10.079420575281	7
4	79	10.079420575281	8
4	97	11.320867737877	9
4	97	11.320867737877	10
4	97	11.320867737877	11
4	125	16.849403823475	12
4	125	16.849403823475	13
4	125	16.849403823475	14
4	163	21.288294605676	15
4	163	21.288294605676	16
4	163	21.288294605676	17
4	181	23.238350839749	18
4	181	23.238350839749	19
4	181	23.238350839749	20
4	215	34.534515674341	21
4	215	34.534515674341	22
4	215	34.534515674341	23
4	237	35.616711570239	24
4	237	35.616711570239	25
4	237	35.616711570239	26
4	264	40.293134765784	27
4	264	40.293134765784	28
4	264	40.293134765784	29
4	292	46.950465131566	30
4	292	46.950465131566	31
4	292	46.950465131566	32
4	320	53.29411715288	33
4	320	53.29411715288	34
4	320	53.29411715288	35
4	337	54.554015243353	36
4	337	54.554015243353	37
4	337	54.554015243353	38
4	379	67.027405641281	39
4	379	67.027405641281	40
4	379	67.027405641281	41
4	445	84.148403418266	42
4	445	84.148403418266	43
4	445	84.148403418266	44
4	525	98.676455688222	45
4	525	98.676455688222	46
4	525	98.676455688222	47
4	541	102.277247978274	48
4	541	102.277247978274	49
4	541	102.277247978274	50
4	574	105.211136273788	51
4	574	105.211136273788	52
4	574	105.211136273788	53
4	609	114.645895260341	54
4	609	114.645895260341	55
4	609	114.645895260341	56
4	623	116.292171822469	57
4	623	116.292171822469	58
4	623	116.292171822469	59
4	655	119.723495059178	60
4	655	119.723495059178	61
4	655	119.723495059178	62
4	698	124.029564456755	63
4	698	124.029564456755	64
4	698	124.029564456755	65
4	723	128.38453317836	66
4	723	128.38453317836	67
4	723	128.38453317836	68
4	737	129.67045561199	69
4	737	129.67045561199	70
4	737	129.67045561199	71
4	776	137.464125381817	72
4	776	137.464125381817	73
4	776	137.464125381817	74
4	794	138.808918638365	75
4	794	138.808918638365	76
4	794	138.808918638365	77
4	815	143.545421020621	78
4	815	143.545421020621	79
4	815	143.545421020621	80
4	845	147.648488759485	81
4	845	147.648488759485	82
4	845	147.648488759485	83
4	905	162.684032733941	84
4	905	162.684032733941	85
4	905	162.684032733941	86
4	945	168.863645982228	87
4	945	168.863645982228	88
4	945	168.863645982228	89
4	989	174.511028032964	90
4	989	174.511028032964	91
4	989	174.511028032964	92
4	1009	177.819894358555	93
4	1009	177.819894358555	94
4	1009	177.819894358555	95
4	1027	179.582465827233	96
4	1027	179.582465827233	97
4	1027	179.582465827233	98
4	1065	193.922571602198	99
4	1065	193.922571602198	100
4	1065	193.922571602198	101
4	1083	195.350917931023	102
4	1083	195.350917931023	103
4	1083	195.350917931023	104
4	1107	199.100387059765	105
4	1107	199.100387059765	106
4	1107	199.100387059765	107
4	1137	206.442328585073	108
4	1137	206.442328585073	109
4	1137	206.442328585073	110
4	1167	211.174717659514	111
4	1167	211.174717659514	112
4	1167	211.174717659514	113
4	1271	234.423530633454	114
4	1271	234.423530633454	115
4	1271	234.423530633454	116
4	1289	238.479550196675	117
4	1289	238.479550196675	118
4	1289	238.479550196675	119
4	1307	239.709813154924	120
4	1307	239.709813154924	121
4	1307	239.709813154924	122
5	32	5.757674244295	0
5	82	10.089420575281	1
5	100	11.330867737877	2
5	128	16.859403823475	3
5	166	21.298294605676	4
5	270	40.303134765784	5
5	298	46.960465131566	6
5	448	84.158403418266	7
5	528	98.686455688222	8
5	545	102.287247978274	9
5	580	105.221136273788	10
5	626	116.302171822469	11
5	659	119.733495059178	12
5	726	128.39453317836	13
5	740	129.68045561199	14
5	782	137.474125381817	15
5	819	143.555421020621	16
5	848	147.658488759485	17
5	1012	177.829894358555	18
5	1030	179.592465827233	19
5	1068	193.932571602198	20
5	1086	195.360917931023	21
5	1141	206.452328585073	22
5	1292	238.489550196675	23
5	1310	239.719813154924	24

