version 2
run General-0-20231008-06:26:05-15741
attr configname General
attr datetime 20231008-06:26:05
attr experiment General
attr inifile omnetpp.ini
attr iterationvars ""
attr iterationvarsf ""
attr measurement ""
attr network Network1
attr processid 15741
attr repetition 0
attr replication #0
attr resultdir results
attr runnumber 0
attr seedset 0
param Network1.node[*].transmissionTime "uniform(1s, 2s)"
param Network1.node[*].delayTime "uniform(0.01s, 0.2s)"
param Network1.node[*].processingTime exponential(0.01s)
param Network1.node[*].lossProbability 0.5
param Reliability.node[*].transmissionTime "uniform(1s, 2s)"
param Reliability.node[*].delayTime "uniform(0.01s, 0.2s)"
param Reliability.node[*].processingTime exponential(0.01s)
param Reliability.node[*].lossProbability 0.0

vector 0 Network1.node[0] txVector ETV
vector 1 Network1.node[1] txVector ETV
vector 2 Network1.node[3] txVector ETV
vector 3 Network1.node[2] txVector ETV
vector 4 Network1.node[4] txVector ETV
vector 5 Network1.node[5] rxVector ETV
0	1	0.114274565438	0
0	15	1.707119181827	1
0	33	2.763832157553	2
0	47	4.132073694915	3
0	49	5.810953228577	4
0	63	7.531585880165	5
0	65	9.268504058086	6
0	83	10.485054414794	7
0	97	12.387402993003	8
0	99	13.995233659707	9
0	117	15.320280887261	10
0	119	16.794978392385	11
0	121	18.418488498386	12
0	123	19.756496115895	13
0	141	21.431248438153	14
0	143	23.309441906707	15
0	153	24.819066278478	16
0	155	26.798653008956	17
0	157	28.158097477937	18
0	159	29.638991014175	19
0	161	31.327652200432	20
0	163	33.208128093583	21
0	165	35.126363566452	22
0	183	36.343185699619	23
0	185	38.18552777877	24
0	191	39.832701917346	25
0	205	41.230522668994	26
0	223	42.518999101435	27
0	237	44.497570025343	28
0	255	46.462986243963	29
0	269	48.179060777491	30
0	279	49.533107441925	31
0	285	50.75437012462	32
0	303	52.738412360037	33
0	305	53.775971744517	34
0	319	55.284287194796	35
0	337	57.26686215152	36
0	339	59.016861399244	37
0	345	60.356265215277	38
0	347	61.535755483275	39
0	365	62.706742076045	40
0	367	64.405840153648	41
0	385	66.398236549301	42
0	391	67.616985917166	43
0	393	69.58722260206	44
0	395	71.267767296247	45
0	397	72.353062863303	46
0	399	73.409481197903	47
0	401	74.897318903897	48
0	419	76.77832346254	49
0	429	78.493020395357	50
0	447	79.722239718381	51
0	449	81.607577382661	52
0	455	83.287456837557	53
0	473	85.076196258962	54
0	475	86.722460693987	55
0	477	87.937341430532	56
0	491	89.123799649142	57
0	497	90.586949845618	58
0	499	91.751908717053	59
0	501	92.876741777947	60
0	511	94.598822438698	61
0	521	96.348076855372	62
0	523	98.025340162059	63
0	525	99.088378454633	64
0	543	100.644027691875	65
0	545	102.250503154081	66
0	563	103.468906002194	67
0	581	104.663248221698	68
0	583	106.073740363196	69
0	601	107.501964190118	70
0	607	108.913336605374	71
0	609	110.215167479664	72
0	611	111.99038726192	73
0	613	113.916600194602	74
0	615	115.241910503787	75
0	633	117.194781174959	76
0	643	118.946915692958	77
0	645	120.538850856787	78
0	647	122.015328060678	79
0	649	123.503262632136	80
0	651	124.961777185864	81
0	669	126.486369801761	82
0	675	128.333645118476	83
0	693	129.403504135861	84
0	695	131.286213422968	85
0	713	132.774623484659	86
0	715	134.313847081578	87
0	717	135.639531848096	88
0	727	136.786545739351	89
0	741	138.6970904582	90
0	743	140.277287565945	91
0	757	141.993531737784	92
0	775	143.496959164348	93
0	789	144.591417080099	94
0	795	145.898403132642	95
0	797	147.29017745548	96
0	799	148.822026637458	97
0	801	150.667384321877	98
0	811	152.203658859321	99
0	813	153.25962468966	100
0	815	154.346157179522	101
0	829	155.58333046998	102
0	831	157.163482189487	103
0	833	158.93457124157	104
0	835	160.31079782297	105
0	837	161.801822563709	106
0	847	163.783462243929	107
0	861	165.614981644863	108
0	875	167.298554607277	109
0	881	169.121114054072	110
0	887	171.090017089929	111
0	889	172.828699748108	112
0	891	174.277783175075	113
0	905	176.215067538974	114
0	907	177.443331152742	115
0	925	178.932840474724	116
0	939	180.257245336036	117
0	953	181.995635673712	118
0	971	183.144464970176	119
0	973	184.244497022434	120
0	991	186.204753805027	121
0	993	187.477762708516	122
0	995	189.447837784031	123
0	997	190.473335137667	124
0	1003	192.361378843507	125
0	1021	194.256242038293	126
0	1023	195.768693698647	127
0	1041	197.279322601466	128
0	1043	198.42759124174	129
0	1045	200.283894219745	130
0	1051	201.918951014832	131
0	1057	202.943478415098	132
0	1059	204.446187959595	133
0	1061	205.59981550121	134
0	1063	207.025323137252	135
0	1081	208.9314949781	136
0	1099	210.158578949125	137
0	1117	211.187678957434	138
0	1123	213.074943793082	139
0	1141	214.479368730291	140
0	1143	215.595467074384	141
0	1145	216.701896486879	142
0	1147	218.018384406418	143
0	1161	219.264919198426	144
0	1179	220.410789352917	145
0	1193	221.595151950215	146
0	1195	223.192454887397	147
0	1197	224.841533221846	148
0	1207	225.846722841804	149
0	1213	227.772424990387	150
0	1215	229.405486999854	151
0	1233	231.296139810077	152
0	1251	233.117858375731	153
0	1257	235.074791346286	154
0	1259	236.156849091948	155
0	1261	237.922119680635	156
0	1263	238.943808403873	157
1	3	0.142870607559	0
1	3	0.142870607559	1
1	3	0.142870607559	2
1	17	1.720302743235	3
1	17	1.720302743235	4
1	17	1.720302743235	5
1	35	2.80533385684	6
1	35	2.80533385684	7
1	35	2.80533385684	8
1	51	5.829676440527	9
1	51	5.829676440527	10
1	51	5.829676440527	11
1	67	9.279956838359	12
1	67	9.279956838359	13
1	67	9.279956838359	14
1	85	10.496100027052	15
1	85	10.496100027052	16
1	85	10.496100027052	17
1	101	14.005625491271	18
1	101	14.005625491271	19
1	101	14.005625491271	20
1	125	19.770311674329	21
1	125	19.770311674329	22
1	125	19.770311674329	23
1	145	23.320015175971	24
1	145	23.320015175971	25
1	145	23.320015175971	26
1	167	35.144692001613	27
1	167	35.144692001613	28
1	167	35.144692001613	29
1	187	38.213940603485	30
1	187	38.213940603485	31
1	187	38.213940603485	32
1	193	39.850749891344	33
1	193	39.850749891344	34
1	193	39.850749891344	35
1	207	41.246201710529	36
1	207	41.246201710529	37
1	207	41.246201710529	38
1	225	42.530234367909	39
1	225	42.530234367909	40
1	225	42.530234367909	41
1	239	44.516448639447	42
1	239	44.516448639447	43
1	239	44.516448639447	44
1	257	46.476382891289	45
1	257	46.476382891289	46
1	257	46.476382891289	47
1	271	48.197086297349	48
1	271	48.197086297349	49
1	271	48.197086297349	50
1	281	49.544630378178	51
1	281	49.544630378178	52
1	281	49.544630378178	53
1	287	50.767385783752	54
1	287	50.767385783752	55
1	287	50.767385783752	56
1	307	53.787797130536	57
1	307	53.787797130536	58
1	307	53.787797130536	59
1	321	55.29895992046	60
1	321	55.29895992046	61
1	321	55.29895992046	62
1	341	59.033586004412	63
1	341	59.033586004412	64
1	341	59.033586004412	65
1	349	61.551981456715	66
1	349	61.551981456715	67
1	349	61.551981456715	68
1	369	64.418949831698	69
1	369	64.418949831698	70
1	369	64.418949831698	71
1	387	66.416666337055	72
1	387	66.416666337055	73
1	387	66.416666337055	74
1	403	74.944785850035	75
1	403	74.944785850035	76
1	403	74.944785850035	77
1	421	76.794662762734	78
1	421	76.794662762734	79
1	421	76.794662762734	80
1	431	78.524356028232	81
1	431	78.524356028232	82
1	431	78.524356028232	83
1	451	81.623667828788	84
1	451	81.623667828788	85
1	451	81.623667828788	86
1	457	83.300063238851	87
1	457	83.300063238851	88
1	457	83.300063238851	89
1	479	87.963822192264	90
1	479	87.963822192264	91
1	479	87.963822192264	92
1	493	89.152152283171	93
1	493	89.152152283171	94
1	493	89.152152283171	95
1	503	92.887051040863	96
1	503	92.887051040863	97
1	503	92.887051040863	98
1	513	94.621978701281	99
1	513	94.621978701281	100
1	513	94.621978701281	101
1	527	99.098471284877	102
1	527	99.098471284877	103
1	527	99.098471284877	104
1	547	102.266575946967	105
1	547	102.266575946967	106
1	547	102.266575946967	107
1	565	103.493748427021	108
1	565	103.493748427021	109
1	565	103.493748427021	110
1	585	106.087276328949	111
1	585	106.087276328949	112
1	585	106.087276328949	113
1	603	107.516415683512	114
1	603	107.516415683512	115
1	603	107.516415683512	116
1	617	115.252050969699	117
1	617	115.252050969699	118
1	617	115.252050969699	119
1	635	117.222477373191	120
1	635	117.222477373191	121
1	635	117.222477373191	122
1	653	124.977611423574	123
1	653	124.977611423574	124
1	653	124.977611423574	125
1	671	126.507806707967	126
1	671	126.507806707967	127
1	671	126.507806707967	128
1	677	128.343742472569	129
1	677	128.343742472569	130
1	677	128.343742472569	131
1	697	131.301567466479	132
1	697	131.301567466479	133
1	697	131.301567466479	134
1	719	135.651273835262	135
1	719	135.651273835262	136
1	719	135.651273835262	137
1	729	136.797411909295	138
1	729	136.797411909295	139
1	729	136.797411909295	140
1	745	140.287561986949	141
1	745	140.287561986949	142
1	745	140.287561986949	143
1	759	142.034262490012	144
1	759	142.034262490012	145
1	759	142.034262490012	146
1	777	143.516999676087	147
1	777	143.516999676087	148
1	777	143.516999676087	149
1	791	144.602692815837	150
1	791	144.602692815837	151
1	791	144.602692815837	152
1	803	150.688787110646	153
1	803	150.688787110646	154
1	803	150.688787110646	155
1	817	154.374452601081	156
1	817	154.374452601081	157
1	817	154.374452601081	158
1	839	161.814628322971	159
1	839	161.814628322971	160
1	839	161.814628322971	161
1	849	163.8099140782	162
1	849	163.8099140782	163
1	849	163.8099140782	164
1	863	165.629773771808	165
1	863	165.629773771808	166
1	863	165.629773771808	167
1	877	167.321957366897	168
1	877	167.321957366897	169
1	877	167.321957366897	170
1	883	169.135626442057	171
1	883	169.135626442057	172
1	883	169.135626442057	173
1	893	174.290756910354	174
1	893	174.290756910354	175
1	893	174.290756910354	176
1	909	177.475543294574	177
1	909	177.475543294574	178
1	909	177.475543294574	179
1	927	178.954238428791	180
1	927	178.954238428791	181
1	927	178.954238428791	182
1	941	180.275350267508	183
1	941	180.275350267508	184
1	941	180.275350267508	185
1	955	182.007049604839	186
1	955	182.007049604839	187
1	955	182.007049604839	188
1	975	184.255248940526	189
1	975	184.255248940526	190
1	975	184.255248940526	191
1	999	190.495666024939	192
1	999	190.495666024939	193
1	999	190.495666024939	194
1	1005	192.371647649702	195
1	1005	192.371647649702	196
1	1005	192.371647649702	197
1	1025	195.783584782753	198
1	1025	195.783584782753	199
1	1025	195.783584782753	200
1	1047	200.297455877561	201
1	1047	200.297455877561	202
1	1047	200.297455877561	203
1	1053	201.93711694172	204
1	1053	201.93711694172	205
1	1053	201.93711694172	206
1	1065	207.035408617438	207
1	1065	207.035408617438	208
1	1065	207.035408617438	209
1	1083	208.947562102192	210
1	1083	208.947562102192	211
1	1083	208.947562102192	212
1	1101	210.193777836063	213
1	1101	210.193777836063	214
1	1101	210.193777836063	215
1	1119	211.218890502002	216
1	1119	211.218890502002	217
1	1119	211.218890502002	218
1	1125	213.092810624237	219
1	1125	213.092810624237	220
1	1125	213.092810624237	221
1	1149	218.036657665654	222
1	1149	218.036657665654	223
1	1149	218.036657665654	224
1	1163	219.279008373718	225
1	1163	219.279008373718	226
1	1163	219.279008373718	227
1	1181	220.426494412798	228
1	1181	220.426494412798	229
1	1181	220.426494412798	230
1	1199	224.886673010076	231
1	1199	224.886673010076	232
1	1199	224.886673010076	233
1	1209	225.860422633602	234
1	1209	225.860422633602	235
1	1209	225.860422633602	236
1	1217	229.421154019452	237
1	1217	229.421154019452	238
1	1217	229.421154019452	239
1	1235	231.311294285577	240
1	1235	231.311294285577	241
1	1235	231.311294285577	242
1	1253	233.129062958409	243
1	1253	233.129062958409	244
1	1253	233.129062958409	245
2	7	0.158381092426	0
2	7	0.158381092426	1
2	7	0.158381092426	2
2	21	1.747024855238	3
2	21	1.747024855238	4
2	21	1.747024855238	5
2	39	2.835742778999	6
2	39	2.835742778999	7
2	39	2.835742778999	8
2	55	5.847054713445	9
2	55	5.847054713445	10
2	55	5.847054713445	11
2	71	9.291578203253	12
2	71	9.291578203253	13
2	71	9.291578203253	14
2	90	10.517206001509	15
2	90	10.517206001509	16
2	90	10.517206001509	17
2	105	14.016701842353	18
2	105	14.016701842353	19
2	105	14.016701842353	20
2	130	19.784911813906	21
2	130	19.784911813906	22
2	130	19.784911813906	23
2	149	23.330217077252	24
2	149	23.330217077252	25
2	149	23.330217077252	26
2	172	35.162099591117	27
2	172	35.162099591117	28
2	172	35.162099591117	29
2	197	39.865367200304	30
2	197	39.865367200304	31
2	197	39.865367200304	32
2	215	41.277309840136	33
2	215	41.277309840136	34
2	215	41.277309840136	35
2	248	44.557703323024	36
2	248	44.557703323024	37
2	248	44.557703323024	38
2	261	46.500212683354	39
2	261	46.500212683354	40
2	261	46.500212683354	41
2	275	48.241811652142	42
2	275	48.241811652142	43
2	275	48.241811652142	44
2	295	50.803899435264	45
2	295	50.803899435264	46
2	295	50.803899435264	47
2	311	53.814264321549	48
2	311	53.814264321549	49
2	311	53.814264321549	50
2	325	55.309479045982	51
2	325	55.309479045982	52
2	325	55.309479045982	53
2	358	61.58830364534	54
2	358	61.58830364534	55
2	358	61.58830364534	56
2	374	64.437863617467	57
2	374	64.437863617467	58
2	374	64.437863617467	59
2	407	74.955035733568	60
2	407	74.955035733568	61
2	407	74.955035733568	62
2	425	76.828351944442	63
2	425	76.828351944442	64
2	425	76.828351944442	65
2	436	78.543231047517	66
2	436	78.543231047517	67
2	436	78.543231047517	68
2	469	83.342620280272	69
2	469	83.342620280272	70
2	469	83.342620280272	71
2	484	87.981107430691	72
2	484	87.981107430691	73
2	484	87.981107430691	74
2	517	94.634325259774	75
2	517	94.634325259774	76
2	517	94.634325259774	77
2	531	99.111780383689	78
2	531	99.111780383689	79
2	531	99.111780383689	80
2	559	102.363190155984	81
2	559	102.363190155984	82
2	559	102.363190155984	83
2	569	103.505351767966	84
2	569	103.505351767966	85
2	569	103.505351767966	86
2	589	106.098562131322	87
2	589	106.098562131322	88
2	589	106.098562131322	89
2	629	115.308750508227	90
2	629	115.308750508227	91
2	629	115.308750508227	92
2	639	117.23349271403	93
2	639	117.23349271403	94
2	639	117.23349271403	95
2	665	125.016482911978	96
2	665	125.016482911978	97
2	665	125.016482911978	98
2	685	128.368832753339	99
2	685	128.368832753339	100
2	685	128.368832753339	101
2	701	131.318016551391	102
2	701	131.318016551391	103
2	701	131.318016551391	104
2	723	135.669923216356	105
2	723	135.669923216356	106
2	723	135.669923216356	107
2	733	136.812503934164	108
2	733	136.812503934164	109
2	733	136.812503934164	110
2	749	140.299311937431	111
2	749	140.299311937431	112
2	749	140.299311937431	113
2	768	142.077563758743	114
2	768	142.077563758743	115
2	768	142.077563758743	116
2	782	143.532516712213	117
2	782	143.532516712213	118
2	782	143.532516712213	119
2	822	154.390052684814	120
2	822	154.390052684814	121
2	822	154.390052684814	122
2	843	161.825095671988	123
2	843	161.825095671988	124
2	843	161.825095671988	125
2	857	163.891578927383	126
2	857	163.891578927383	127
2	857	163.891578927383	128
2	867	165.647057547538	129
2	867	165.647057547538	130
2	867	165.647057547538	131
2	897	174.312701809789	132
2	897	174.312701809789	133
2	897	174.312701809789	134
2	913	177.490408485972	135
2	913	177.490408485972	136
2	913	177.490408485972	137
2	932	178.97020392796	138
2	932	178.97020392796	139
2	932	178.97020392796	140
2	945	180.293302489521	141
2	945	180.293302489521	142
2	945	180.293302489521	143
2	959	182.017784668613	144
2	959	182.017784668613	145
2	959	182.017784668613	146
2	979	184.30415804143	147
2	979	184.30415804143	148
2	979	184.30415804143	149
2	1017	192.428458544956	150
2	1017	192.428458544956	151
2	1017	192.428458544956	152
2	1030	195.805981763559	153
2	1030	195.805981763559	154
2	1030	195.805981763559	155
2	1069	207.046638243107	156
2	1069	207.046638243107	157
2	1069	207.046638243107	158
2	1091	208.990468590495	159
2	1091	208.990468590495	160
2	1091	208.990468590495	161
2	1106	210.211116535733	162
2	1106	210.211116535733	163
2	1106	210.211116535733	164
2	1137	213.155305543387	165
2	1137	213.155305543387	166
2	1137	213.155305543387	167
2	1157	218.068399994725	168
2	1157	218.068399994725	169
2	1157	218.068399994725	170
2	1171	219.300208291046	171
2	1171	219.300208291046	172
2	1171	219.300208291046	173
2	1185	220.449054368786	174
2	1185	220.449054368786	175
2	1185	220.449054368786	176
2	1221	229.435271025231	177
2	1221	229.435271025231	178
2	1221	229.435271025231	179
2	1239	231.363048721619	180
2	1239	231.363048721619	181
2	1239	231.363048721619	182
3	8	0.160742618959	0
3	8	0.160742618959	1
3	8	0.160742618959	2
3	29	1.790097267971	3
3	29	1.790097267971	4
3	29	1.790097267971	5
3	59	5.868620645307	6
3	59	5.868620645307	7
3	59	5.868620645307	8
3	79	9.339752907488	9
3	79	9.339752907488	10
3	79	9.339752907488	11
3	89	10.517089151728	12
3	89	10.517089151728	13
3	89	10.517089151728	14
3	113	14.060170459733	15
3	113	14.060170459733	16
3	113	14.060170459733	17
3	129	19.782500480294	18
3	129	19.782500480294	19
3	129	19.782500480294	20
3	171	35.157776150014	21
3	171	35.157776150014	22
3	171	35.157776150014	23
3	211	41.264785640207	24
3	211	41.264785640207	25
3	211	41.264785640207	26
3	229	42.557043589954	27
3	229	42.557043589954	28
3	229	42.557043589954	29
3	243	44.533406634056	30
3	243	44.533406634056	31
3	243	44.533406634056	32
3	265	46.511668423138	33
3	265	46.511668423138	34
3	265	46.511668423138	35
3	291	50.789555978705	36
3	291	50.789555978705	37
3	291	50.789555978705	38
3	312	53.816636419402	39
3	312	53.816636419402	40
3	312	53.816636419402	41
3	333	55.332270016734	42
3	333	55.332270016734	43
3	333	55.332270016734	44
3	353	61.566218027729	45
3	353	61.566218027729	46
3	353	61.566218027729	47
3	373	64.436620628244	48
3	373	64.436620628244	49
3	373	64.436620628244	50
3	408	74.956765527388	51
3	408	74.956765527388	52
3	408	74.956765527388	53
3	435	78.539192412107	54
3	435	78.539192412107	55
3	435	78.539192412107	56
3	461	83.312992753436	57
3	461	83.312992753436	58
3	461	83.312992753436	59
3	483	87.975072518163	60
3	483	87.975072518163	61
3	483	87.975072518163	62
3	507	92.91086067182	63
3	507	92.91086067182	64
3	507	92.91086067182	65
3	535	99.123849572022	66
3	535	99.123849572022	67
3	535	99.123849572022	68
3	551	102.306397953722	69
3	551	102.306397953722	70
3	551	102.306397953722	71
3	570	103.508013785141	72
3	570	103.508013785141	73
3	570	103.508013785141	74
3	593	106.109591814959	75
3	593	106.109591814959	76
3	593	106.109591814959	77
3	621	115.276773011279	78
3	621	115.276773011279	79
3	621	115.276773011279	80
3	657	124.990945456958	81
3	657	124.990945456958	82
3	657	124.990945456958	83
3	681	128.358376372844	84
3	681	128.358376372844	85
3	681	128.358376372844	86
3	705	131.333644803409	87
3	705	131.333644803409	88
3	705	131.333644803409	89
3	734	136.820291529046	90
3	734	136.820291529046	91
3	734	136.820291529046	92
3	750	140.300306622169	93
3	750	140.300306622169	94
3	750	140.300306622169	95
3	763	142.050373065625	96
3	763	142.050373065625	97
3	763	142.050373065625	98
3	781	143.527647333015	99
3	781	143.527647333015	100
3	781	143.527647333015	101
3	807	150.727846306683	102
3	807	150.727846306683	103
3	807	150.727846306683	104
3	821	154.384609892319	105
3	821	154.384609892319	106
3	821	154.384609892319	107
3	853	163.865392316719	108
3	853	163.865392316719	109
3	853	163.865392316719	110
3	868	165.650735697418	111
3	868	165.650735697418	112
3	868	165.650735697418	113
3	901	174.326219483643	114
3	901	174.326219483643	115
3	901	174.326219483643	116
3	917	177.513528116783	117
3	917	177.513528116783	118
3	917	177.513528116783	119
3	931	178.966124076034	120
3	931	178.966124076034	121
3	931	178.966124076034	122
3	949	180.331471606821	123
3	949	180.331471606821	124
3	949	180.331471606821	125
3	960	182.023061151303	126
3	960	182.023061151303	127
3	960	182.023061151303	128
3	987	184.329579025833	129
3	987	184.329579025833	130
3	987	184.329579025833	131
3	1009	192.385704913141	132
3	1009	192.385704913141	133
3	1009	192.385704913141	134
3	1029	195.803323568668	135
3	1029	195.803323568668	136
3	1029	195.803323568668	137
3	1070	207.047762676103	138
3	1070	207.047762676103	139
3	1070	207.047762676103	140
3	1087	208.966447389315	141
3	1087	208.966447389315	142
3	1087	208.966447389315	143
3	1105	210.209612437786	144
3	1105	210.209612437786	145
3	1105	210.209612437786	146
3	1129	213.109796659906	147
3	1129	213.109796659906	148
3	1129	213.109796659906	149
3	1153	218.048406768255	150
3	1153	218.048406768255	151
3	1153	218.048406768255	152
3	1167	219.289804075269	153
3	1167	219.289804075269	154
3	1167	219.289804075269	155
3	1189	220.46268484033	156
3	1189	220.46268484033	157
3	1189	220.46268484033	158
3	1203	224.900647800875	159
3	1203	224.900647800875	160
3	1203	224.900647800875	161
3	1222	229.437251641181	162
3	1222	229.437251641181	163
3	1222	229.437251641181	164
3	1247	231.421944936376	165
3	1247	231.421944936376	166
3	1247	231.421944936376	167
4	25	1.762013575328	0
4	25	1.762013575328	1
4	25	1.762013575328	2
4	43	2.861882799748	3
4	43	2.861882799748	4
4	43	2.861882799748	5
4	75	9.306463773746	6
4	75	9.306463773746	7
4	75	9.306463773746	8
4	109	14.028460977807	9
4	109	14.028460977807	10
4	109	14.028460977807	11
4	134	19.792637126078	12
4	134	19.792637126078	13
4	134	19.792637126078	14
4	179	35.175352995272	15
4	179	35.175352995272	16
4	179	35.175352995272	17
4	201	39.883798030625	18
4	201	39.883798030625	19
4	201	39.883798030625	20
4	216	41.283277848323	21
4	216	41.283277848323	22
4	216	41.283277848323	23
4	233	42.588338583915	24
4	233	42.588338583915	25
4	233	42.588338583915	26
4	247	44.548429742039	27
4	247	44.548429742039	28
4	247	44.548429742039	29
4	299	50.832296763115	30
4	299	50.832296763115	31
4	299	50.832296763115	32
4	329	55.319646723642	33
4	329	55.319646723642	34
4	329	55.319646723642	35
4	357	61.585297668002	36
4	357	61.585297668002	37
4	357	61.585297668002	38
4	381	64.479999971583	39
4	381	64.479999971583	40
4	381	64.479999971583	41
4	415	74.976411118623	42
4	415	74.976411118623	43
4	415	74.976411118623	44
4	443	78.556526088839	45
4	443	78.556526088839	46
4	443	78.556526088839	47
4	465	83.330295030088	48
4	465	83.330295030088	49
4	465	83.330295030088	50
4	539	99.140497649518	51
4	539	99.140497649518	52
4	539	99.140497649518	53
4	555	102.332452541353	54
4	555	102.332452541353	55
4	555	102.332452541353	56
4	577	103.52185974139	57
4	577	103.52185974139	58
4	577	103.52185974139	59
4	597	106.155681225009	60
4	597	106.155681225009	61
4	597	106.155681225009	62
4	625	115.287601634008	63
4	625	115.287601634008	64
4	625	115.287601634008	65
4	661	125.002944012337	66
4	661	125.002944012337	67
4	661	125.002944012337	68
4	686	128.374535565682	69
4	686	128.374535565682	70
4	686	128.374535565682	71
4	706	131.335150394219	72
4	706	131.335150394219	73
4	706	131.335150394219	74
4	767	142.068947416651	75
4	767	142.068947416651	76
4	767	142.068947416651	77
4	921	177.526708662235	78
4	921	177.526708662235	79
4	921	177.526708662235	80
4	964	182.029437598736	81
4	964	182.029437598736	82
4	964	182.029437598736	83
4	983	184.317151571459	84
4	983	184.317151571459	85
4	983	184.317151571459	86
4	1013	192.415533038944	87
4	1013	192.415533038944	88
4	1013	192.415533038944	89
4	1037	195.82393049192	90
4	1037	195.82393049192	91
4	1037	195.82393049192	92
4	1077	207.068908786133	93
4	1077	207.068908786133	94
4	1077	207.068908786133	95
4	1095	209.012023337782	96
4	1095	209.012023337782	97
4	1095	209.012023337782	98
4	1113	210.236045970138	99
4	1113	210.236045970138	100
4	1113	210.236045970138	101
4	1133	213.127592010194	102
4	1133	213.127592010194	103
4	1133	213.127592010194	104
4	1172	219.302646272704	105
4	1172	219.302646272704	106
4	1172	219.302646272704	107
4	1226	229.446703257946	108
4	1226	229.446703257946	109
4	1226	229.446703257946	110
4	1243	231.400796267835	111
4	1243	231.400796267835	112
4	1243	231.400796267835	113
5	46	2.871882799748	0
5	112	14.038460977807	1
5	140	19.802637126078	2
5	182	35.185352995272	3
5	204	39.893798030625	4
5	222	41.293277848323	5
5	236	42.598338583915	6
5	302	50.842296763115	7
5	332	55.329646723642	8
5	361	61.595297668002	9
5	418	74.986411118623	10
5	446	78.566526088839	11
5	542	99.150497649518	12
5	600	106.165681225009	13
5	628	115.297601634008	14
5	664	125.012944012337	15
5	692	128.384535565682	16
5	771	142.078947416651	17
5	970	182.039437598736	18
5	986	184.327151571459	19
5	1040	195.83393049192	20
5	1116	210.246045970138	21
5	1178	219.312646272704	22
5	1232	229.456703257946	23

