version 2
run General-2-20231008-06:26:05-15741
attr configname General
attr datetime 20231008-06:26:05
attr experiment General
attr inifile omnetpp.ini
attr iterationvars ""
attr iterationvarsf ""
attr measurement ""
attr network Network1
attr processid 15741
attr repetition 2
attr replication #2
attr resultdir results
attr runnumber 2
attr seedset 2
param Network1.node[*].transmissionTime "uniform(1s, 2s)"
param Network1.node[*].delayTime "uniform(0.01s, 0.2s)"
param Network1.node[*].processingTime exponential(0.01s)
param Network1.node[*].lossProbability 0.5
param Reliability.node[*].transmissionTime "uniform(1s, 2s)"
param Reliability.node[*].delayTime "uniform(0.01s, 0.2s)"
param Reliability.node[*].processingTime exponential(0.01s)
param Reliability.node[*].lossProbability 0.0

vector 0 Network1.node[0] txVector ETV
vector 1 Network1.node[1] txVector ETV
vector 2 Network1.node[2] txVector ETV
vector 3 Network1.node[4] txVector ETV
vector 4 Network1.node[5] rxVector ETV
vector 5 Network1.node[3] txVector ETV
0	1	0.092839031499	0
0	3	1.277921112972	1
0	9	3.20946197656	2
0	11	4.52999841284	3
0	13	5.684425088363	4
0	19	7.383287777677	5
0	37	9.016025508307	6
0	39	10.19301013208	7
0	45	12.16264253973	8
0	47	13.278835862428	9
0	49	14.460562899727	10
0	55	15.954852667655	11
0	57	17.722343844147	12
0	59	19.299651914294	13
0	61	20.467475228728	14
0	63	21.834946597711	15
0	81	23.303620180133	16
0	91	24.813146059885	17
0	93	26.62232134493	18
0	111	27.975996718294	19
0	113	29.722628131294	20
0	115	31.154165901262	21
0	133	33.042469647731	22
0	135	34.804399646604	23
0	153	36.737028207415	24
0	155	38.465526709817	25
0	169	39.821280333697	26
0	171	41.735755905527	27
0	173	43.56212391124	28
0	179	44.973870351928	29
0	181	46.355563290435	30
0	183	48.318022866053	31
0	201	49.965037091886	32
0	203	51.539990629553	33
0	213	53.016834035766	34
0	231	54.232640433143	35
0	245	55.965462920739	36
0	247	57.901710964058	37
0	249	59.36545357203	38
0	251	61.217742532276	39
0	253	62.430509903253	40
0	259	63.43063348743	41
0	261	64.94549265459	42
0	263	66.825483005744	43
0	265	68.610274928639	44
0	267	70.140096104488	45
0	269	71.413933974009	46
0	283	72.440318120195	47
0	301	73.659608093108	48
0	303	74.67571835827	49
0	305	76.610754086188	50
0	315	78.001339766215	51
0	329	79.020324894245	52
0	335	81.012309143338	53
0	337	82.885436483444	54
0	339	84.37049024973	55
0	345	86.114352279826	56
0	347	87.849703673989	57
0	349	89.035293410084	58
0	367	90.167385168158	59
0	369	91.320950842945	60
0	379	93.267644966504	61
0	389	95.095098316919	62
0	391	96.162833556084	63
0	409	97.791014774719	64
0	427	99.137112923914	65
0	429	100.205712110985	66
0	443	101.303260181582	67
0	461	103.060264821181	68
0	467	105.047569676785	69
0	477	106.646116058359	70
0	483	107.647656793723	71
0	501	109.612053692591	72
0	511	110.787698378804	73
0	513	112.522383687337	74
0	515	114.495935003524	75
0	517	115.738272506529	76
0	519	116.944891257695	77
0	529	118.369300622511	78
0	547	119.705593593437	79
0	553	121.540559447389	80
0	567	123.129656557245	81
0	573	124.40956371489	82
0	579	125.617605331838	83
0	589	127.049738432532	84
0	591	128.249634613534	85
0	593	129.940494662635	86
0	595	131.190064350627	87
0	597	132.333059580316	88
0	603	133.464338802983	89
0	605	135.143760215742	90
0	607	136.617653122656	91
0	617	138.192099464843	92
0	623	140.028842994263	93
0	633	141.879272825103	94
0	643	143.838978820499	95
0	649	144.929446800863	96
0	651	146.794742143964	97
0	653	148.540280958656	98
0	655	149.90554699257	99
0	657	151.65451202916	100
0	659	153.161283867918	101
0	661	154.55468809071	102
0	663	155.807934927074	103
0	665	157.618708130922	104
0	667	159.388542320831	105
0	669	161.184257594887	106
0	675	162.360554605275	107
0	677	164.281598742604	108
0	679	165.624171408145	109
0	681	167.272950020638	110
0	683	168.475310687693	111
0	685	170.371715456499	112
0	687	172.186681722542	113
0	705	174.015236886469	114
0	723	175.115201827389	115
0	729	176.594382153609	116
0	743	177.754659075541	117
0	749	179.4748757214	118
0	751	181.11644859055	119
0	753	182.314448481444	120
0	755	183.516347984103	121
0	761	185.423407416576	122
0	763	187.204164938786	123
0	765	188.286044311029	124
0	771	189.775497783459	125
0	777	191.637474241684	126
0	795	193.172217232891	127
0	797	195.01327982663	128
0	799	196.049064804118	129
0	801	197.537721336137	130
0	807	199.162520465923	131
0	809	200.716446704946	132
0	823	202.461321858007	133
0	829	204.17022740307	134
0	843	205.258876713707	135
0	845	206.460519756206	136
0	851	208.440683327165	137
0	869	210.081330988572	138
0	887	211.245763489992	139
0	897	212.359932090637	140
0	915	213.552134230748	141
0	917	215.492296538098	142
0	935	217.01975505917	143
0	937	218.05684285659	144
0	939	219.702823388405	145
0	945	221.077483547866	146
0	955	222.366870766753	147
0	961	224.296219943339	148
0	979	225.421207099004	149
0	993	226.738507684335	150
0	1011	228.242529631374	151
0	1013	230.028331281399	152
0	1027	231.423913273742	153
0	1029	232.813476225609	154
0	1047	234.358637638172	155
0	1065	235.487066420508	156
0	1067	236.55755678589	157
0	1069	237.843510581893	158
0	1071	239.153034542236	159
1	5	1.317434556699	0
1	5	1.317434556699	1
1	5	1.317434556699	2
1	15	5.695702860092	3
1	15	5.695702860092	4
1	15	5.695702860092	5
1	21	7.410337728618	6
1	21	7.410337728618	7
1	21	7.410337728618	8
1	41	10.20653437712	9
1	41	10.20653437712	10
1	41	10.20653437712	11
1	51	14.478904596896	12
1	51	14.478904596896	13
1	51	14.478904596896	14
1	65	21.855567458835	15
1	65	21.855567458835	16
1	65	21.855567458835	17
1	83	23.316069853809	18
1	83	23.316069853809	19
1	83	23.316069853809	20
1	95	26.63862950258	21
1	95	26.63862950258	22
1	95	26.63862950258	23
1	117	31.192500896598	24
1	117	31.192500896598	25
1	117	31.192500896598	26
1	137	34.826820452325	27
1	137	34.826820452325	28
1	137	34.826820452325	29
1	157	38.477921131901	30
1	157	38.477921131901	31
1	157	38.477921131901	32
1	175	43.582089234437	33
1	175	43.582089234437	34
1	175	43.582089234437	35
1	185	48.359687045195	36
1	185	48.359687045195	37
1	185	48.359687045195	38
1	205	51.555457547622	39
1	205	51.555457547622	40
1	205	51.555457547622	41
1	215	53.043295632597	42
1	215	53.043295632597	43
1	215	53.043295632597	44
1	233	54.265310091367	45
1	233	54.265310091367	46
1	233	54.265310091367	47
1	255	62.441484887902	48
1	255	62.441484887902	49
1	255	62.441484887902	50
1	271	71.44431379362	51
1	271	71.44431379362	52
1	271	71.44431379362	53
1	285	72.468428622732	54
1	285	72.468428622732	55
1	285	72.468428622732	56
1	307	76.644906644029	57
1	307	76.644906644029	58
1	307	76.644906644029	59
1	317	78.017318622092	60
1	317	78.017318622092	61
1	317	78.017318622092	62
1	331	79.036043412149	63
1	331	79.036043412149	64
1	331	79.036043412149	65
1	341	84.394521845657	66
1	341	84.394521845657	67
1	341	84.394521845657	68
1	351	89.045393629668	69
1	351	89.045393629668	70
1	351	89.045393629668	71
1	371	91.334428614189	72
1	371	91.334428614189	73
1	371	91.334428614189	74
1	381	93.2854036872	75
1	381	93.2854036872	76
1	381	93.2854036872	77
1	393	96.182910587778	78
1	393	96.182910587778	79
1	393	96.182910587778	80
1	411	97.808762309068	81
1	411	97.808762309068	82
1	411	97.808762309068	83
1	431	100.21827777212	84
1	431	100.21827777212	85
1	431	100.21827777212	86
1	445	101.318522952881	87
1	445	101.318522952881	88
1	445	101.318522952881	89
1	463	103.070677414863	90
1	463	103.070677414863	91
1	463	103.070677414863	92
1	469	105.059200590831	93
1	469	105.059200590831	94
1	469	105.059200590831	95
1	479	106.656537507019	96
1	479	106.656537507019	97
1	479	106.656537507019	98
1	485	107.659674117074	99
1	485	107.659674117074	100
1	485	107.659674117074	101
1	503	109.624997594231	102
1	503	109.624997594231	103
1	503	109.624997594231	104
1	521	116.967547428591	105
1	521	116.967547428591	106
1	521	116.967547428591	107
1	531	118.384512386461	108
1	531	118.384512386461	109
1	531	118.384512386461	110
1	549	119.716654708717	111
1	549	119.716654708717	112
1	549	119.716654708717	113
1	555	121.556921351951	114
1	555	121.556921351951	115
1	555	121.556921351951	116
1	569	123.150639303677	117
1	569	123.150639303677	118
1	569	123.150639303677	119
1	575	124.419793500701	120
1	575	124.419793500701	121
1	575	124.419793500701	122
1	581	125.630994421428	123
1	581	125.630994421428	124
1	581	125.630994421428	125
1	599	132.372001970496	126
1	599	132.372001970496	127
1	599	132.372001970496	128
1	609	136.633037029871	129
1	609	136.633037029871	130
1	609	136.633037029871	131
1	619	138.207427052916	132
1	619	138.207427052916	133
1	619	138.207427052916	134
1	625	140.041463730296	135
1	625	140.041463730296	136
1	625	140.041463730296	137
1	635	141.909516183984	138
1	635	141.909516183984	139
1	635	141.909516183984	140
1	645	143.856163691893	141
1	645	143.856163691893	142
1	645	143.856163691893	143
1	671	161.203524562698	144
1	671	161.203524562698	145
1	671	161.203524562698	146
1	689	172.207248246934	147
1	689	172.207248246934	148
1	689	172.207248246934	149
1	707	174.02525573079	150
1	707	174.02525573079	151
1	707	174.02525573079	152
1	725	175.136429528172	153
1	725	175.136429528172	154
1	725	175.136429528172	155
1	731	176.60470017744	156
1	731	176.60470017744	157
1	731	176.60470017744	158
1	745	177.777073077124	159
1	745	177.777073077124	160
1	745	177.777073077124	161
1	757	183.53501997774	162
1	757	183.53501997774	163
1	757	183.53501997774	164
1	767	188.30904567889	165
1	767	188.30904567889	166
1	767	188.30904567889	167
1	773	189.788170844331	168
1	773	189.788170844331	169
1	773	189.788170844331	170
1	779	191.662879931817	171
1	779	191.662879931817	172
1	779	191.662879931817	173
1	803	197.550874714552	174
1	803	197.550874714552	175
1	803	197.550874714552	176
1	811	200.749817400391	177
1	811	200.749817400391	178
1	811	200.749817400391	179
1	825	202.479028769215	180
1	825	202.479028769215	181
1	825	202.479028769215	182
1	831	204.183407520832	183
1	831	204.183407520832	184
1	831	204.183407520832	185
1	847	206.473728882633	186
1	847	206.473728882633	187
1	847	206.473728882633	188
1	853	208.461692269105	189
1	853	208.461692269105	190
1	853	208.461692269105	191
1	871	210.093115352143	192
1	871	210.093115352143	193
1	871	210.093115352143	194
1	889	211.275291038749	195
1	889	211.275291038749	196
1	889	211.275291038749	197
1	899	212.371233609379	198
1	899	212.371233609379	199
1	899	212.371233609379	200
1	919	215.511523268512	201
1	919	215.511523268512	202
1	919	215.511523268512	203
1	941	219.713883512184	204
1	941	219.713883512184	205
1	941	219.713883512184	206
1	947	221.103984413332	207
1	947	221.103984413332	208
1	947	221.103984413332	209
1	957	222.377113127045	210
1	957	222.377113127045	211
1	957	222.377113127045	212
1	963	224.309689490096	213
1	963	224.309689490096	214
1	963	224.309689490096	215
1	981	225.464139060265	216
1	981	225.464139060265	217
1	981	225.464139060265	218
1	995	226.764840823289	219
1	995	226.764840823289	220
1	995	226.764840823289	221
1	1015	230.049388773656	222
1	1015	230.049388773656	223
1	1015	230.049388773656	224
1	1031	232.836016797083	225
1	1031	232.836016797083	226
1	1031	232.836016797083	227
1	1049	234.377571313411	228
1	1049	234.377571313411	229
1	1049	234.377571313411	230
2	25	7.421783131359	0
2	25	7.421783131359	1
2	25	7.421783131359	2
2	70	21.872604217303	3
2	70	21.872604217303	4
2	70	21.872604217303	5
2	87	23.330249487525	6
2	87	23.330249487525	7
2	87	23.330249487525	8
2	103	26.675490916495	9
2	103	26.675490916495	10
2	103	26.675490916495	11
2	122	31.218608201601	12
2	122	31.218608201601	13
2	122	31.218608201601	14
2	142	34.8438322547	15
2	142	34.8438322547	16
2	142	34.8438322547	17
2	189	48.37210312173	18
2	189	48.37210312173	19
2	189	48.37210312173	20
2	209	51.581481458379	21
2	209	51.581481458379	22
2	209	51.581481458379	23
2	220	53.057545750341	24
2	220	53.057545750341	25
2	220	53.057545750341	26
2	238	54.284256786897	27
2	238	54.284256786897	28
2	238	54.284256786897	29
2	279	71.46852398763	30
2	279	71.46852398763	31
2	279	71.46852398763	32
2	289	72.491967089771	33
2	289	72.491967089771	34
2	289	72.491967089771	35
2	311	76.655585832123	36
2	311	76.655585832123	37
2	311	76.655585832123	38
2	359	89.096909251421	39
2	359	89.096909251421	40
2	359	89.096909251421	41
2	375	91.357007523166	42
2	375	91.357007523166	43
2	375	91.357007523166	44
2	397	96.217765409838	45
2	397	96.217765409838	46
2	397	96.217765409838	47
2	419	97.870082711501	48
2	419	97.870082711501	49
2	419	97.870082711501	50
2	435	100.232570253705	51
2	435	100.232570253705	52
2	435	100.232570253705	53
2	449	101.328963820195	54
2	449	101.328963820195	55
2	449	101.328963820195	56
2	489	107.672678148898	57
2	489	107.672678148898	58
2	489	107.672678148898	59
2	507	109.636341842283	60
2	507	109.636341842283	61
2	507	109.636341842283	62
2	525	116.990125757214	63
2	525	116.990125757214	64
2	525	116.990125757214	65
2	540	118.412387566188	66
2	540	118.412387566188	67
2	540	118.412387566188	68
2	563	121.625401386468	69
2	563	121.625401386468	70
2	563	121.625401386468	71
2	629	140.058455519156	72
2	629	140.058455519156	73
2	629	140.058455519156	74
2	693	172.220981073632	75
2	693	172.220981073632	76
2	693	172.220981073632	77
2	715	174.062667360208	78
2	715	174.062667360208	79
2	715	174.062667360208	80
2	736	176.630108528766	81
2	736	176.630108528766	82
2	736	176.630108528766	83
2	784	191.681968529513	84
2	784	191.681968529513	85
2	784	191.681968529513	86
2	839	204.222196173067	87
2	839	204.222196173067	88
2	839	204.222196173067	89
2	857	208.472729776247	90
2	857	208.472729776247	91
2	857	208.472729776247	92
2	876	210.111256501397	93
2	876	210.111256501397	94
2	876	210.111256501397	95
2	903	212.385898051836	96
2	903	212.385898051836	97
2	903	212.385898051836	98
2	923	215.540840381928	99
2	923	215.540840381928	100
2	923	215.540840381928	101
2	967	224.32173815579	102
2	967	224.32173815579	103
2	967	224.32173815579	104
2	989	225.499098349659	105
2	989	225.499098349659	106
2	989	225.499098349659	107
2	1003	226.791167078411	108
2	1003	226.791167078411	109
2	1003	226.791167078411	110
2	1035	232.847533650054	111
2	1035	232.847533650054	112
2	1035	232.847533650054	113
2	1057	234.408909076417	114
2	1057	234.408909076417	115
2	1057	234.408909076417	116
3	29	7.433821932529	0
3	29	7.433821932529	1
3	29	7.433821932529	2
3	77	21.889134716474	3
3	77	21.889134716474	4
3	77	21.889134716474	5
3	104	26.679196768831	6
3	104	26.679196768831	7
3	104	26.679196768831	8
3	129	31.232075776342	9
3	129	31.232075776342	10
3	129	31.232075776342	11
3	149	34.855621398648	12
3	149	34.855621398648	13
3	149	34.855621398648	14
3	165	38.52597893513	15
3	165	38.52597893513	16
3	165	38.52597893513	17
3	193	48.392426928021	18
3	193	48.392426928021	19
3	193	48.392426928021	20
3	227	53.07180058726	21
3	227	53.07180058726	22
3	227	53.07180058726	23
3	293	72.518005899294	24
3	293	72.518005899294	25
3	293	72.518005899294	26
3	325	78.046157703499	27
3	325	78.046157703499	28
3	325	78.046157703499	29
3	363	89.113476596981	30
3	363	89.113476596981	31
3	363	89.113476596981	32
3	401	96.23472124039	33
3	401	96.23472124039	34
3	401	96.23472124039	35
3	420	97.872345829044	36
3	420	97.872345829044	37
3	420	97.872345829044	38
3	454	101.344674596303	39
3	454	101.344674596303	40
3	454	101.344674596303	41
3	497	107.722043907505	42
3	497	107.722043907505	43
3	497	107.722043907505	44
3	539	118.406810562489	45
3	539	118.406810562489	46
3	539	118.406810562489	47
3	701	172.252310792558	48
3	701	172.252310792558	49
3	701	172.252310792558	50
3	719	174.083684482183	51
3	719	174.083684482183	52
3	719	174.083684482183	53
3	791	191.694245208151	54
3	791	191.694245208151	55
3	791	191.694245208151	56
3	819	200.777897599397	57
3	819	200.777897599397	58
3	819	200.777897599397	59
3	861	208.491017750947	60
3	861	208.491017750947	61
3	861	208.491017750947	62
3	883	210.128606291097	63
3	883	210.128606291097	64
3	883	210.128606291097	65
3	911	212.403337109678	66
3	911	212.403337109678	67
3	911	212.403337109678	68
3	927	215.571983772706	69
3	927	215.571983772706	70
3	927	215.571983772706	71
3	975	224.34491466175	72
3	975	224.34491466175	73
3	975	224.34491466175	74
3	1007	226.819610306597	75
3	1007	226.819610306597	76
3	1007	226.819610306597	77
3	1023	230.089366953809	78
3	1023	230.089366953809	79
3	1023	230.089366953809	80
3	1040	232.857961535058	81
3	1040	232.857961535058	82
3	1040	232.857961535058	83
3	1061	234.425966433989	84
3	1061	234.425966433989	85
3	1061	234.425966433989	86
4	32	7.443821932529	0
4	80	21.899134716474	1
4	197	48.402426928021	2
4	230	53.08180058726	3
4	296	72.528005899294	4
4	328	78.056157703499	5
4	366	89.123476596981	6
4	404	96.24472124039	7
4	460	101.354674596303	8
4	543	118.416810562489	9
4	704	172.262310792558	10
4	722	174.093684482183	11
4	864	208.501017750947	12
4	886	210.138606291097	13
4	930	215.581983772706	14
4	978	224.35491466175	15
4	1010	226.829610306597	16
4	1026	230.099366953809	17
4	1046	232.867961535058	18
4	1064	234.435966433989	19
5	33	7.447169904287	0
5	33	7.447169904287	1
5	33	7.447169904287	2
5	69	21.870459611204	3
5	69	21.870459611204	4
5	69	21.870459611204	5
5	99	26.664634303562	6
5	99	26.664634303562	7
5	99	26.664634303562	8
5	121	31.211709335377	9
5	121	31.211709335377	10
5	121	31.211709335377	11
5	141	34.840729291402	12
5	141	34.840729291402	13
5	141	34.840729291402	14
5	161	38.508983118413	15
5	161	38.508983118413	16
5	161	38.508983118413	17
5	194	48.392934881901	18
5	194	48.392934881901	19
5	194	48.392934881901	20
5	219	53.056357875499	21
5	219	53.056357875499	22
5	219	53.056357875499	23
5	237	54.282029158372	24
5	237	54.282029158372	25
5	237	54.282029158372	26
5	275	71.455882792338	27
5	275	71.455882792338	28
5	275	71.455882792338	29
5	297	72.53061401636	30
5	297	72.53061401636	31
5	297	72.53061401636	32
5	321	78.030470579613	33
5	321	78.030470579613	34
5	321	78.030470579613	35
5	355	89.05550222643	36
5	355	89.05550222643	37
5	355	89.05550222643	38
5	385	93.313855143077	39
5	385	93.313855143077	40
5	385	93.313855143077	41
5	405	96.247190747231	42
5	405	96.247190747231	43
5	405	96.247190747231	44
5	415	97.834023990993	45
5	415	97.834023990993	46
5	415	97.834023990993	47
5	439	100.243341881049	48
5	439	100.243341881049	49
5	439	100.243341881049	50
5	453	101.341459737854	51
5	453	101.341459737854	52
5	453	101.341459737854	53
5	473	105.070810219604	54
5	473	105.070810219604	55
5	473	105.070810219604	56
5	493	107.685505141853	57
5	493	107.685505141853	58
5	493	107.685505141853	59
5	535	118.395891738743	60
5	535	118.395891738743	61
5	535	118.395891738743	62
5	559	121.602171202733	63
5	559	121.602171202733	64
5	559	121.602171202733	65
5	585	125.653978292866	66
5	585	125.653978292866	67
5	585	125.653978292866	68
5	613	136.647051614881	69
5	613	136.647051614881	70
5	613	136.647051614881	71
5	639	141.931716554114	72
5	639	141.931716554114	73
5	639	141.931716554114	74
5	697	172.238475826036	75
5	697	172.238475826036	76
5	697	172.238475826036	77
5	711	174.045892277196	78
5	711	174.045892277196	79
5	711	174.045892277196	80
5	735	176.620295790228	81
5	735	176.620295790228	82
5	735	176.620295790228	83
5	783	191.68138524936	84
5	783	191.68138524936	85
5	783	191.68138524936	86
5	815	200.761270013873	87
5	815	200.761270013873	88
5	815	200.761270013873	89
5	835	204.19410207791	90
5	835	204.19410207791	91
5	835	204.19410207791	92
5	865	208.503553795519	93
5	865	208.503553795519	94
5	865	208.503553795519	95
5	875	210.110701138887	96
5	875	210.110701138887	97
5	875	210.110701138887	98
5	893	211.290401704277	99
5	893	211.290401704277	100
5	893	211.290401704277	101
5	904	212.386927153502	102
5	904	212.386927153502	103
5	904	212.386927153502	104
5	931	215.60785824875	105
5	931	215.60785824875	106
5	931	215.60785824875	107
5	951	221.114508440939	108
5	951	221.114508440939	109
5	951	221.114508440939	110
5	971	224.33202738414	111
5	971	224.33202738414	112
5	971	224.33202738414	113
5	985	225.477170621466	114
5	985	225.477170621466	115
5	985	225.477170621466	116
5	999	226.77888707409	117
5	999	226.77888707409	118
5	999	226.77888707409	119
5	1019	230.073727852796	120
5	1019	230.073727852796	121
5	1019	230.073727852796	122
5	1036	232.849668436486	123
5	1036	232.849668436486	124
5	1036	232.849668436486	125
5	1053	234.39615728092	126
5	1053	234.39615728092	127
5	1053	234.39615728092	128

