version 2
run General-1-20230921-23:12:56-8546
attr configname General
attr datetime 20230921-23:12:56
attr experiment General
attr inifile omnetpp.ini
attr iterationvars ""
attr iterationvarsf ""
attr measurement ""
attr network Network1
attr processid 8546
attr repetition 1
attr replication #1
attr resultdir results
attr runnumber 1
attr seedset 1
param Network1.node[*].transmissionTime "uniform(1s, 2s)"
param Network1.node[*].delayTime "uniform(0.01s, 0.2s)"
param Network1.node[*].processingTime exponential(0.01s)
param Network1.node[*].lossProbability 0.3

vector 0 Network1.node[0] txVector ETV
vector 1 Network1.node[1] txVector ETV
vector 2 Network1.node[2] txVector ETV
vector 3 Network1.node[4] txVector ETV
vector 4 Network1.node[5] rxVector ETV
vector 5 Network1.node[3] txVector ETV
0	1	0.089234179703	0
0	5	2.086418987836	1
0	9	3.388751555586	2
0	11	4.785332281727	3
0	19	6.173243021944	4
0	23	7.377695270933	5
0	29	8.912109178144	6
0	31	10.851236973077	7
0	39	12.62962620857	8
0	43	14.524232872415	9
0	45	15.79728284979	10
0	53	16.856526046877	11
0	55	18.548403159601	12
0	57	19.863918793506	13
0	61	21.550419718145	14
0	67	22.584591028166	15
0	71	24.030725528837	16
0	75	25.478619053379	17
0	77	27.381989224699	18
0	79	28.501479698463	19
0	81	30.026279081476	20
0	89	31.109902086786	21
0	95	32.684019693525	22
0	103	33.786354123966	23
0	113	34.831699848992	24
0	125	36.723835717539	25
0	133	38.347507923727	26
0	139	40.228849752692	27
0	153	42.015801226606	28
0	163	43.594435158537	29
0	167	45.426127747984	30
0	177	46.59846825863	31
0	179	48.521492799397	32
0	183	50.233017556255	33
0	185	51.629330844504	34
0	187	52.736696152833	35
0	189	54.246506431025	36
0	193	55.348641663442	37
0	197	56.901463636781	38
0	199	58.135086164462	39
0	205	59.226642604802	40
0	215	61.039637576441	41
0	217	62.468019985945	42
0	219	63.829924435473	43
0	221	64.983262919473	44
0	223	66.920453245404	45
0	225	68.836863118575	46
0	227	70.618821581245	47
0	233	72.235150524067	48
0	237	73.529509995949	49
0	239	74.732803237044	50
0	241	75.98512898374	51
0	243	77.728954841035	52
0	251	78.924384321204	53
0	257	80.128742445378	54
0	259	81.779863010744	55
0	267	82.819546512679	56
0	269	84.399291736425	57
0	277	85.779432912243	58
0	281	87.543674524759	59
0	283	88.75384853699	60
0	285	90.506604095341	61
0	293	91.573140577765	62
0	301	93.412785789117	63
0	303	95.320601647606	64
0	307	97.252573714943	65
0	315	98.981131111623	66
0	321	100.622697318324	67
0	329	102.172245237629	68
0	331	103.526822471411	69
0	333	104.605342440891	70
0	341	106.298527639012	71
0	343	107.47472389939	72
0	349	108.806787472104	73
0	355	110.74689495878	74
0	363	112.652287270759	75
0	373	114.602330577911	76
0	377	116.417430635194	77
0	381	118.205359869289	78
0	387	119.221232849058	79
0	391	121.088750303841	80
0	393	123.062533846476	81
0	395	124.667249947206	82
0	397	126.496095756885	83
0	401	128.07080726477	84
0	405	129.770691295039	85
0	407	131.629005133059	86
0	413	133.384087315878	87
0	419	135.054876106909	88
0	425	136.456355692471	89
0	429	138.43015777378	90
0	433	139.704058098724	91
0	435	141.501696905704	92
0	441	143.381695192657	93
0	443	144.634061895893	94
0	449	146.488959840615	95
0	451	148.222102372092	96
0	459	149.741114000906	97
0	463	151.513964431709	98
0	465	153.496781548368	99
0	467	154.678394404588	100
0	473	156.490253097726	101
0	481	157.651224533444	102
0	487	158.790504582807	103
0	489	160.231332904774	104
0	493	161.711611087782	105
0	499	162.919805526849	106
0	503	164.536490595782	107
0	507	166.427007714169	108
0	509	167.579679363523	109
0	517	169.201485591125	110
0	525	170.24978560314	111
0	531	172.094495212542	112
0	535	173.92090220598	113
0	545	174.968220434966	114
0	547	176.272098862682	115
0	549	177.585854244069	116
0	557	178.812315857853	117
0	561	180.802787638852	118
0	569	182.162347942941	119
0	573	183.708418748692	120
0	581	185.166569627008	121
0	591	186.533112724197	122
0	595	188.522864432658	123
0	597	189.7482549086	124
0	601	191.395008822789	125
0	605	192.45193825674	126
0	613	194.176918377753	127
0	619	195.557934502491	128
0	623	197.517368819683	129
0	629	199.081577564941	130
0	631	200.587303785726	131
0	633	202.281710638085	132
0	643	203.73868854542	133
0	651	205.648325493678	134
0	655	206.726712393693	135
0	673	208.31067218201	136
0	675	210.305036977751	137
0	681	211.958726733343	138
0	685	213.567539822196	139
0	693	215.518733606792	140
0	695	217.134037838669	141
0	703	218.971841706315	142
0	707	220.881134907369	143
0	709	222.520193881475	144
0	711	224.00989349082	145
0	719	225.899268239158	146
0	727	227.881685683624	147
0	731	229.802703545316	148
0	745	231.741590023394	149
0	749	233.194443523073	150
0	751	234.527882787287	151
0	759	236.422579395938	152
0	769	237.669975431291	153
0	779	238.757457643402	154
0	783	239.942588039794	155
1	3	0.126198958082	0
1	7	2.098006083808	1
1	13	4.806411215185	2
1	21	6.204289994907	3
1	25	7.412224935735	4
1	33	10.873823745189	5
1	41	12.640515003856	6
1	47	15.818385490099	7
1	59	19.891914230796	8
1	63	21.570202176961	9
1	69	22.597102916721	10
1	73	24.064650135002	11
1	83	30.061151535423	12
1	91	31.12148886257	13
1	97	32.699365003859	14
1	105	33.79786195892	15
1	115	34.846441320533	16
1	127	36.747736429873	17
1	135	38.357625301864	18
1	141	40.239511870048	19
1	155	42.025891714734	20
1	165	43.61244972201	21
1	169	45.437602726987	22
1	181	48.532819784933	23
1	191	54.259913291706	24
1	195	55.377095221366	25
1	201	58.153527415468	26
1	207	59.240064128205	27
1	229	70.629188215235	28
1	235	72.249626133748	29
1	245	77.747662254636	30
1	253	78.974423859477	31
1	261	81.806676451791	32
1	271	84.41729790714	33
1	279	85.791824799319	34
1	287	90.519619405312	35
1	295	91.592903430081	36
1	305	95.33074214569	37
1	309	97.276693340438	38
1	317	98.996074201367	39
1	323	100.658758767444	40
1	335	104.615470382528	41
1	345	107.48612798461	42
1	351	108.825510549793	43
1	357	110.763054603074	44
1	365	112.666050375853	45
1	375	114.620180949283	46
1	379	116.436898938251	47
1	383	118.215869760749	48
1	389	119.246658225738	49
1	399	126.515986419789	50
1	403	128.0927643187	51
1	409	131.650980311516	52
1	415	133.400081588249	53
1	421	135.068694334222	54
1	427	136.477681548127	55
1	431	138.440258274385	56
1	437	141.535114526648	57
1	445	144.651563614997	58
1	453	148.246837636897	59
1	461	149.763344950396	60
1	469	154.709185752587	61
1	475	156.506543185535	62
1	483	157.668996444436	63
1	491	160.245386820463	64
1	495	161.724461723608	65
1	501	162.932466900377	66
1	505	164.562114875857	67
1	511	167.597532210149	68
1	519	169.234418277365	69
1	527	170.26751704821	70
1	533	172.123744609414	71
1	537	173.94375276032	72
1	551	177.607011865965	73
1	559	178.8258861556	74
1	563	180.820862723077	75
1	571	182.179822412423	76
1	575	183.740249721846	77
1	583	185.196399765266	78
1	593	186.545393107132	79
1	599	189.783654905909	80
1	603	191.412112086604	81
1	607	192.465546109407	82
1	615	194.200775655434	83
1	621	195.58422891379	84
1	625	197.528789406252	85
1	635	202.296193446352	86
1	645	203.751937615663	87
1	653	205.658510521318	88
1	657	206.745234314711	89
1	677	210.315418441231	90
1	683	211.969849592031	91
1	687	213.601121015219	92
1	697	217.15594529188	93
1	705	218.986964535324	94
1	713	224.040648804057	95
1	721	225.912369407109	96
1	729	227.892144412044	97
1	733	229.813017925726	98
1	747	231.761486948648	99
1	753	234.540170418483	100
1	761	236.437220307598	101
1	771	237.682554201313	102
1	781	238.779560118934	103
1	785	239.959097547721	104
2	15	4.824150812888	0
2	49	15.83385187702	1
2	85	30.074237823506	2
2	93	31.134513151735	3
2	107	33.836792769709	4
2	117	34.858248798817	5
2	121	34.896626873361	6
2	129	36.772143219728	7
2	137	38.377345866197	8
2	143	40.258148606364	9
2	147	40.306295437288	10
2	159	42.064776391737	11
2	173	45.460416905859	12
2	203	58.171760662528	13
2	211	59.282087352906	14
2	273	84.452120253699	15
2	289	90.531165648311	16
2	297	91.603585801889	17
2	313	97.328961360165	18
2	325	100.673353390949	19
2	353	108.838274531371	20
2	359	110.77730549481	21
2	369	112.697911137029	22
2	385	118.250953779251	23
2	417	133.412828820703	24
2	423	135.086937352992	25
2	455	148.257531481208	26
2	485	157.681968629069	27
2	513	167.614673078947	28
2	523	169.259635393484	29
2	529	170.287315491727	30
2	539	173.96317502241	31
2	555	177.652489120453	32
2	577	183.751997961372	33
2	587	185.225030634925	34
2	611	192.486753964027	35
2	637	202.316238841403	36
2	647	203.779310889059	37
2	661	206.808900246964	38
2	665	206.882894713511	39
2	669	206.910299033829	40
2	679	210.335055241183	41
2	689	213.618266752334	42
2	715	224.053718098299	43
2	723	225.929333657166	44
2	737	229.839917308846	45
2	741	229.883191952994	46
2	757	234.574851459375	47
2	763	236.468979786542	48
2	767	236.517821642657	49
2	775	237.713534853391	50
3	17	4.837909004815	0
3	37	10.904885408464	1
3	51	15.849158553481	2
3	87	30.093017882009	3
3	101	32.726671065145	4
3	111	33.879738220981	5
3	123	34.907977225798	6
3	131	36.804765928678	7
3	151	40.339482628694	8
3	161	42.074935869063	9
3	175	45.477514704001	10
3	213	59.305835819852	11
3	249	77.77091774349	12
3	265	81.842678639457	13
3	275	84.465198007112	14
3	291	90.55136719648	15
3	299	91.620982669801	16
3	327	100.71639297274	17
3	339	104.669097208641	18
3	361	110.790670281136	19
3	371	112.711698075889	20
3	457	148.271727459897	21
3	479	156.541967100008	22
3	543	174.010067450196	23
3	567	180.879917930921	24
3	579	183.786947324813	25
3	641	202.3556796369	26
3	649	203.789424333285	27
3	671	206.925447245046	28
3	701	217.235629804095	29
3	725	225.963499354714	30
3	743	229.900432485098	31
3	777	237.754136708928	32
4	18	4.847909004815	0
4	38	10.914885408464	1
4	88	30.103017882009	2
4	102	32.736671065145	3
4	124	34.917977225798	4
4	132	36.814765928678	5
4	152	40.349482628694	6
4	162	42.084935869063	7
4	214	59.315835819852	8
4	250	77.78091774349	9
4	292	90.56136719648	10
4	300	91.630982669801	11
4	340	104.679097208641	12
4	362	110.800670281136	13
4	372	112.721698075889	14
4	480	156.551967100008	15
4	544	174.020067450196	16
4	568	180.889917930921	17
4	580	183.796947324813	18
4	642	202.3656796369	19
4	650	203.799424333285	20
4	672	206.935447245046	21
4	726	225.973499354714	22
5	27	7.430405008849	0
5	35	10.887584131413	1
5	65	21.593992014572	2
5	99	32.716158622096	3
5	109	33.868259312978	4
5	119	34.872731392771	5
5	145	40.272925792137	6
5	149	40.319881641361	7
5	157	42.040312016503	8
5	171	45.449734115593	9
5	209	59.266520230917	10
5	231	70.639314569979	11
5	247	77.758175377945	12
5	255	78.986129268433	13
5	263	81.825089477351	14
5	311	97.31668594913	15
5	319	99.00790083663	16
5	337	104.655029771081	17
5	347	107.503771781694	18
5	367	112.685051631972	19
5	411	131.661027053716	20
5	439	141.552404218343	21
5	447	144.66361068924	22
5	471	154.72998361563	23
5	477	156.522989665407	24
5	497	161.735032288849	25
5	515	167.638597322852	26
5	521	169.244644112618	27
5	541	173.985360305575	28
5	553	177.632937117258	29
5	565	180.867648199125	30
5	585	185.212940240141	31
5	589	185.243139306692	32
5	609	192.475826051626	33
5	617	194.234168339873	34
5	627	197.568268154812	35
5	639	202.331146257857	36
5	659	206.755516080715	37
5	663	206.832641474115	38
5	667	206.899396979529	39
5	691	213.629839821604	40
5	699	217.211952270497	41
5	717	224.072526819204	42
5	735	229.829640644492	43
5	739	229.853567235249	44
5	755	234.557453346609	45
5	765	236.497579952385	46
5	773	237.694193000313	47
5	787	239.969684060203	48

