version 2
run General-0-20230921-23:12:56-8546
attr configname General
attr datetime 20230921-23:12:56
attr experiment General
attr inifile omnetpp.ini
attr iterationvars ""
attr iterationvarsf ""
attr measurement ""
attr network Network1
attr processid 8546
attr repetition 0
attr replication #0
attr resultdir results
attr runnumber 0
attr seedset 0
param Network1.node[*].transmissionTime "uniform(1s, 2s)"
param Network1.node[*].delayTime "uniform(0.01s, 0.2s)"
param Network1.node[*].processingTime exponential(0.01s)
param Network1.node[*].lossProbability 0.3

vector 0 Network1.node[0] txVector ETV
vector 1 Network1.node[1] txVector ETV
vector 2 Network1.node[3] txVector ETV
vector 3 Network1.node[4] txVector ETV
vector 4 Network1.node[5] rxVector ETV
vector 5 Network1.node[2] txVector ETV
0	1	0.114274565438	0
0	9	1.707119181827	1
0	11	3.144706391804	2
0	13	5.036479393561	3
0	15	7.000142157619	4
0	23	8.383583678939	5
0	25	9.72097984057	6
0	27	11.369151717127	7
0	31	12.737393254489	8
0	39	14.607405399746	9
0	49	16.328038051334	10
0	53	18.064956229255	11
0	63	19.083746027276	12
0	67	20.52077797994	13
0	71	22.49058704854	14
0	83	23.700969610205	15
0	85	25.336028487263	16
0	91	27.331328052869	17
0	93	28.95483815887	18
0	95	30.292845776379	19
0	103	31.967598098637	20
0	107	33.064699369789	21
0	115	35.036644368739	22
0	119	36.075832157702	23
0	121	37.435276626683	24
0	123	38.916170162921	25
0	131	40.604831349178	26
0	135	41.870220840283	27
0	139	43.791378452283	28
0	141	45.109947407226	29
0	147	46.777357783475	30
0	151	47.960549146942	31
0	155	49.125489607527	32
0	167	50.803306146831	33
0	179	52.694860577657	34
0	187	54.276133453547	35
0	193	55.506666476679	36
0	197	56.976798665085	37
0	203	58.266876275026	38
0	205	59.565158602855	39
0	215	61.135123514411	40
0	217	62.502685386063	41
0	227	63.938550305394	42
0	235	65.937397308256	43
0	245	67.716448326436	44
0	255	69.136523694107	45
0	257	70.886522941831	46
0	263	72.225926757864	47
0	273	73.396913350634	48
0	281	74.896939644431	49
0	289	76.432572441715	50
0	291	77.65501566518	51
0	297	78.873765033045	52
0	299	80.554309727232	53
0	301	81.639605294288	54
0	309	82.696023628888	55
0	319	83.720702357664	56
0	323	84.937599338665	57
0	325	86.07481975954	58
0	339	87.304039082564	59
0	347	88.98391853746	60
0	357	90.23786018284	61
0	359	91.701435605604	62
0	361	92.979064314002	63
0	365	94.565848659333	64
0	369	96.240696004434	65
0	375	97.957555684336	66
0	377	99.102403446874	67
0	379	100.590459731482	68
0	385	101.946072466513	69
0	387	103.849792206036	70
0	393	104.933214640785	71
0	395	106.225362171493	72
0	399	107.466190948691	73
0	405	109.021840185933	74
0	413	110.725334971287	75
0	415	112.063493927317	76
0	423	114.025064084986	77
0	431	115.733612233847	78
0	445	117.080845745587	79
0	447	118.592164727933	80
0	455	119.816481751929	81
0	465	121.227854167185	82
0	471	123.180724838357	83
0	473	125.06358483674	84
0	475	126.314207556499	85
0	485	127.991619380964	86
0	487	129.247758963918	87
0	489	130.839694127747	88
0	497	132.316171331638	89
0	501	133.599690180113	90
0	511	135.109032245892	91
0	517	136.178891263277	92
0	523	137.958083234102	93
0	535	139.427581539451	94
0	537	140.963759038904	95
0	541	142.645151550955	96
0	545	143.970836317473	97
0	547	145.157967210355	98
0	553	147.061951161901	99
0	563	148.520555118405	100
0	565	150.277333764666	101
0	569	151.913394821183	102
0	573	152.923161253174	103
0	579	154.38130007808	104
0	587	156.333174552842	105
0	597	157.427632468593	106
0	603	158.734618521136	107
0	605	160.266467703114	108
0	613	162.111825387533	109
0	615	163.565987786585	110
0	617	164.892688673296	111
0	619	166.125432805465	112
0	623	167.739897512206	113
0	629	169.252972378702	114
0	631	170.833124098209	115
0	633	172.604213150292	116
0	635	173.980439731692	117
0	637	175.471464472431	118
0	651	177.453104152651	119
0	653	179.254940302884	120
0	655	180.325387492152	121
0	663	182.008960454566	122
0	673	183.563648265861	123
0	679	184.609655576833	124
0	685	186.59514700722	125
0	687	188.587158251396	126
0	689	189.836578294477	127
0	693	190.94248445293	128
0	701	192.300591928028	129
0	709	193.679648823878	130
0	717	194.975891210679	131
0	723	196.609888905967	132
0	725	198.309463967411	133
0	727	200.277429538388	134
0	731	202.271830326487	135
0	733	203.883578744094	136
0	735	205.555485762964	137
0	743	207.003001632011	138
0	745	208.970796304597	139
0	751	210.517681201296	140
0	755	211.924414543044	141
0	759	213.197423446533	142
0	775	214.445836906862	143
0	777	216.335070232237	144
0	785	217.847521892591	145
0	791	219.052445574739	146
0	793	220.596123628859	147
0	807	221.878823275753	148
0	811	223.221434258	149
0	813	225.190298359684	150
0	815	226.881192087039	151
0	823	227.980608479894	152
0	833	229.627805131796	153
0	841	231.137612323585	154
0	849	232.520715211594	155
0	853	234.407675992308	156
0	861	235.812100929517	157
0	867	237.735406993033	158
0	869	238.771440815257	159
0	879	239.946212822648	160
1	3	0.142870607559	0
1	17	7.025831118795	1
1	29	11.410653416414	2
1	33	12.78584547318	3
1	41	14.626128611696	4
1	51	16.340478536241	5
1	55	18.084570038646	6
1	65	19.105707105271	7
1	69	20.541366321255	8
1	73	22.501967335424	9
1	87	25.354747645799	10
1	97	30.306661334813	11
1	105	31.99579628783	12
1	109	33.095752582797	13
1	117	35.049968471149	14
1	125	38.947412534891	15
1	133	40.622238938682	16
1	137	41.881088545106	17
1	143	45.121360714362	18
1	149	46.796189073895	19
1	153	47.975166455902	20
1	157	49.138636824136	21
1	169	50.824702226466	22
1	181	52.726208882157	23
1	189	54.29115656153	24
1	195	55.529256911852	25
1	199	56.996422415643	26
1	207	59.584095893638	27
1	219	62.534934532635	28
1	229	63.950169006261	29
1	237	65.967417173211	30
1	247	67.726967451958	31
1	259	70.903247546999	32
1	265	72.242152731304	33
1	275	73.407430179692	34
1	283	74.9158534302	35
1	293	77.673445452934	36
1	303	81.656296431525	37
1	311	82.706719805599	38
1	321	83.741581402	39
1	327	86.106155392415	40
1	341	87.320129528691	41
1	349	88.996317772654	42
1	363	93.009004706015	43
1	367	94.579090650468	44
1	371	96.255738803767	45
1	381	100.628666090966	46
1	389	103.867826123663	47
1	397	106.236419043234	48
1	401	107.476283778935	49
1	407	109.033844607884	50
1	417	112.076129698445	51
1	425	114.041958430364	52
1	433	115.745215574792	53
1	449	118.60319441157	54
1	457	119.830933245323	55
1	467	121.237994633097	56
1	477	126.340837214306	57
1	491	130.856387156467	58
1	499	132.330950511513	59
1	503	133.610593552554	60
1	513	135.119129599985	61
1	519	136.214815749365	62
1	525	137.989514231106	63
1	539	140.977010747609	64
1	543	142.656741671123	65
1	549	145.175815580551	66
1	555	147.084830781652	67
1	567	150.290078399886	68
1	571	151.927080650579	69
1	575	152.942101267201	70
1	581	154.399874429106	71
1	589	156.353215064581	72
1	599	157.438908204331	73
1	607	160.284152328888	74
1	621	166.135769144674	75
1	625	167.760390933865	76
1	639	175.484270231693	77
1	657	180.340179619097	78
1	665	182.022343915753	79
1	675	183.576296088594	80
1	681	184.654384133892	81
1	691	189.876727977199	82
1	695	190.957349644328	83
1	703	192.315280709584	84
1	711	193.711361082692	85
1	719	195.006087055711	86
1	729	200.293441084852	87
1	737	205.577395577498	88
1	747	208.984009707626	89
1	753	210.535712569015	90
1	757	211.969505178554	91
1	761	213.214472939747	92
1	779	216.352216574111	93
1	787	217.86170280918	94
1	795	220.606430646589	95
1	809	221.898558001189	96
1	817	226.894613833955	97
1	825	227.999781197863	98
1	835	229.641869260463	99
1	843	231.164045855937	100
1	851	232.540360209212	101
1	855	234.425542823463	102
1	863	235.83981446271	103
1	871	238.786369602941	104
1	881	239.957959100613	105
2	5	0.160742618959	0
2	19	7.042369944467	1
2	35	12.811985493929	2
2	43	14.665072816476	3
2	57	18.097084457967	4
2	77	22.539772228957	5
2	99	30.318850140778	6
2	127	38.958075508906	7
2	161	49.164900501243	8
2	173	50.864672091739	9
2	177	50.912734133952	10
2	201	57.027496891693	11
2	209	59.594437927822	12
2	223	62.563691427666	13
2	241	65.996173850684	14
2	251	67.786690350969	15
2	261	70.91547893908	16
2	267	72.256389302318	17
2	285	74.959232773539	18
2	295	77.69018789863	19
2	313	82.723232112918	20
2	329	86.12099177629	21
2	333	86.154832549501	22
2	337	86.194567376857	23
2	353	89.025024908894	24
2	373	96.284091437796	25
2	391	103.878293001099	26
2	409	109.05049268538	27
2	427	114.070859447345	28
2	435	115.797234169054	29
2	439	115.82725358282	30
2	459	119.841779040241	31
2	463	119.878126616997	32
2	481	126.383989989686	33
2	493	130.87247780102	34
2	507	133.661324870602	35
2	515	135.13376350026	36
2	527	138.008130906024	37
2	531	138.03040389478	38
2	551	145.209955744856	39
2	557	147.095811976878	40
2	591	156.363862721509	41
2	601	157.453319752438	42
2	609	160.295201656361	43
2	627	167.773293668016	44
2	643	175.55438464886	45
2	647	175.594784008122	46
2	659	180.361141544707	47
2	667	182.045746675373	48
2	683	184.687121205559	49
2	699	191.000442264381	50
2	713	193.724075782356	51
2	741	205.638915124338	52
2	749	208.997003237655	53
2	765	213.245170889533	54
2	769	213.300787304268	55
2	799	220.634655274669	56
2	803	220.663758755433	57
2	829	228.03789808524	58
2	845	231.176630448424	59
2	857	234.442528859132	60
2	865	235.850253735051	61
2	873	238.804642862177	62
2	883	239.972048275905	63
3	7	0.180512683223	0
3	37	12.837150853669	1
3	47	14.689265081604	2
3	61	18.151841068948	3
3	81	22.570907290091	4
3	101	30.339712834587	5
3	113	33.159371324508	6
3	129	38.976403944067	7
3	165	49.198436147425	8
3	185	52.76204549087	9
3	213	59.627497238859	10
3	225	62.578034884225	11
3	233	63.980111499629	12
3	243	66.018128236347	13
3	253	67.801152879174	14
3	271	72.286084257541	15
3	279	73.433256538445	16
3	307	81.697829408278	17
3	317	82.76346534363	18
3	345	87.345163114922	19
3	355	89.048134632576	20
3	411	109.075982802172	21
3	421	112.118962306097	22
3	429	114.095701872172	23
3	443	115.852261798946	24
3	453	118.664015404267	25
3	495	130.88831203873	26
3	509	133.674328121405	27
3	533	138.048532878392	28
3	561	147.136204313647	29
3	585	154.438492164928	30
3	595	156.408700829026	31
3	611	160.306238364727	32
3	649	175.605459349691	33
3	661	180.390378930414	34
3	671	182.074730462384	35
3	707	192.348564310894	36
3	773	213.325558969009	37
3	783	216.412578183624	38
3	805	220.675426713014	39
3	821	226.930684357749	40
3	831	228.053708171795	41
3	839	229.692902749124	42
3	847	231.194376585788	43
3	859	234.460340547032	44
3	877	238.835503422859	45
3	885	239.982843977456	46
4	8	0.190512683223	0
4	48	14.699265081604	1
4	62	18.161841068948	2
4	130	38.986403944067	3
4	186	52.77204549087	4
4	226	62.588034884225	5
4	244	66.028128236347	6
4	254	67.811152879174	7
4	280	73.443256538445	8
4	308	81.707829408278	9
4	318	82.77346534363	10
4	346	87.355163114922	11
4	356	89.058134632576	12
4	412	109.085982802172	13
4	422	112.128962306097	14
4	430	114.105701872172	15
4	444	115.862261798946	16
4	454	118.674015404267	17
4	496	130.89831203873	18
4	510	133.684328121405	19
4	562	147.146204313647	20
4	650	175.615459349691	21
4	662	180.400378930414	22
4	672	182.084730462384	23
4	708	192.358564310894	24
4	774	213.335558969009	25
4	784	216.422578183624	26
4	806	220.685426713014	27
4	832	228.063708171795	28
4	840	229.702902749124	29
4	848	231.204376585788	30
4	886	239.992843977456	31
5	21	7.078352485325	0
5	45	14.676192278082	1
5	59	18.13586360818	2
5	75	22.521327951022	3
5	79	22.559830939009	4
5	89	25.371027061609	5
5	111	33.143371855642	6
5	145	45.149773539077	7
5	159	49.152040291518	8
5	163	49.179943939309	9
5	171	50.853436825265	10
5	175	50.891481313784	11
5	183	52.745087496261	12
5	191	54.310480590334	13
5	211	59.614996423909	14
5	221	62.55263530123	15
5	231	63.96055183539	16
5	239	65.985835982828	17
5	249	67.774067057877	18
5	269	72.275760689495	19
5	277	73.420146860395	20
5	287	74.974311424766	21
5	305	81.678215012562	22
5	315	82.740923310929	23
5	331	86.134917506572	24
5	335	86.168570182439	25
5	343	87.332556713628	26
5	351	89.01269965871	27
5	383	100.65240952111	28
5	403	107.50166206608	29
5	419	112.092907718466	30
5	437	115.814113603839	31
5	441	115.838725833193	32
5	451	118.621615774598	33
5	461	119.866705361883	34
5	469	121.262716674677	35
5	479	126.356293791454	36
5	483	126.406974446042	37
5	505	133.63253368626	38
5	521	136.240899927856	39
5	529	138.020043866483	40
5	559	147.117524613827	41
5	577	152.960261452841	42
5	583	154.41158981538	43
5	593	156.379793537482	44
5	641	175.540673031652	45
5	645	175.574566824648	46
5	669	182.060218074399	47
5	677	183.613987533422	48
5	697	190.980469275139	49
5	705	192.336678663651	50
5	715	193.742180713828	51
5	721	195.020376174069	52
5	739	205.596661963501	53
5	763	213.227727106919	54
5	767	213.26499617296	55
5	771	213.312633462997	56
5	781	216.373627007454	57
5	789	217.879651537541	58
5	797	220.619992304405	59
5	801	220.652821201557	60
5	819	226.915759943985	61
5	827	228.027727929003	62
5	837	229.677068147401	63
5	875	238.816391964778	64

