version 2
run General-4-20230921-23:12:56-8546
attr configname General
attr datetime 20230921-23:12:56
attr experiment General
attr inifile omnetpp.ini
attr iterationvars ""
attr iterationvarsf ""
attr measurement ""
attr network Network1
attr processid 8546
attr repetition 4
attr replication #4
attr resultdir results
attr runnumber 4
attr seedset 4
param Network1.node[*].transmissionTime "uniform(1s, 2s)"
param Network1.node[*].delayTime "uniform(0.01s, 0.2s)"
param Network1.node[*].processingTime exponential(0.01s)
param Network1.node[*].lossProbability 0.3

vector 0 Network1.node[0] txVector ETV
vector 1 Network1.node[1] txVector ETV
vector 2 Network1.node[3] txVector ETV
vector 3 Network1.node[2] txVector ETV
vector 4 Network1.node[4] txVector ETV
vector 5 Network1.node[5] rxVector ETV
0	1	0.193735669288	0
0	9	2.094357123985	1
0	11	4.070631578718	2
0	17	5.076861835704	3
0	25	6.274546907437	4
0	33	7.887072250633	5
0	37	9.673378234882	6
0	39	11.114726768261	7
0	49	12.180436307019	8
0	51	13.441408385909	9
0	53	14.477166574136	10
0	57	15.705929244323	11
0	69	17.343539493079	12
0	73	18.811289846119	13
0	75	20.36603071067	14
0	77	21.990961560667	15
0	83	23.88646272236	16
0	85	25.384256843165	17
0	93	26.566702244258	18
0	103	27.923075334089	19
0	107	29.003054574052	20
0	109	30.735648026144	21
0	117	32.630299319433	22
0	123	34.222172965215	23
0	125	35.742847366644	24
0	133	37.049860038249	25
0	139	38.860004460825	26
0	145	40.008731301794	27
0	153	41.19775705567	28
0	157	42.334682873836	29
0	159	44.237104732696	30
0	161	46.216720995879	31
0	173	47.840289834574	32
0	181	49.149084399142	33
0	183	51.091670254632	34
0	189	52.55715993132	35
0	191	54.530437928778	36
0	199	55.570529050347	37
0	207	57.46722090539	38
0	217	58.473544845511	39
0	223	60.399353441237	40
0	231	61.808944830358	41
0	235	63.088176770754	42
0	243	64.917594719132	43
0	247	66.21222727761	44
0	253	67.534802257701	45
0	257	69.342351206497	46
0	265	71.032136500499	47
0	271	72.184022103122	48
0	273	73.496227137197	49
0	275	74.614672656788	50
0	277	75.990012801869	51
0	279	77.019786799943	52
0	287	78.557568469468	53
0	295	79.859935820253	54
0	297	81.267918089322	55
0	305	83.005370066186	56
0	307	84.049292574321	57
0	313	85.334537167951	58
0	315	87.090186457067	59
0	321	88.341684923192	60
0	329	89.367086624644	61
0	331	90.915891747141	62
0	341	92.515689236728	63
0	353	94.469645210925	64
0	355	96.305519748397	65
0	357	97.834592131117	66
0	359	99.247633174445	67
0	361	100.310200080193	68
0	369	101.506224473623	69
0	371	103.142358487855	70
0	373	104.275200494482	71
0	385	105.357908105395	72
0	393	106.652351187459	73
0	395	108.295659714295	74
0	403	109.905766111017	75
0	407	111.720932500587	76
0	417	112.919988152023	77
0	419	114.283965473214	78
0	427	115.861329169396	79
0	429	117.366329580929	80
0	437	118.399389048491	81
0	443	120.207638771192	82
0	449	121.527063962224	83
0	451	123.098888655811	84
0	461	124.250377904776	85
0	465	126.198435711827	86
0	469	127.552287778504	87
0	475	128.671769695043	88
0	479	130.378969538876	89
0	489	131.623768813362	90
0	493	132.780862280786	91
0	501	134.085677989446	92
0	507	135.953922567344	93
0	515	137.154904870703	94
0	519	138.588073520609	95
0	521	139.665944724497	96
0	525	140.723526063528	97
0	533	142.273673491007	98
0	537	143.794135168348	99
0	545	144.868117612474	100
0	553	146.467649832055	101
0	559	147.970204352088	102
0	573	149.694601356903	103
0	585	151.075241245249	104
0	595	152.907192640857	105
0	599	154.804058675806	106
0	607	156.605772765505	107
0	609	158.170629870764	108
0	615	159.289774767042	109
0	619	160.949633016403	110
0	625	162.783750357724	111
0	627	163.971443074442	112
0	635	165.304234678311	113
0	641	167.111972631573	114
0	645	169.106464292308	115
0	647	170.275737856434	116
0	651	171.457812862856	117
0	655	172.643079142704	118
0	659	174.606828584488	119
0	663	176.500854299323	120
0	671	177.609300944641	121
0	677	178.71422241201	122
0	685	180.061429823668	123
0	695	181.746358670214	124
0	705	182.777315573919	125
0	713	184.761281284656	126
0	721	186.061343125919	127
0	729	187.77476055656	128
0	737	189.062883366751	129
0	741	190.683506857058	130
0	743	192.636624755723	131
0	751	194.568235855935	132
0	765	195.899550088368	133
0	771	197.683837575758	134
0	775	199.322702049896	135
0	777	201.229263882538	136
0	785	202.610668868677	137
0	791	204.025386614411	138
0	795	205.953900961823	139
0	801	207.728825598874	140
0	803	209.223092290724	141
0	813	210.950174088275	142
0	815	212.583214158343	143
0	817	213.597110163804	144
0	819	215.585296584211	145
0	825	216.80163795842	146
0	827	218.139388898305	147
0	831	219.759039246395	148
0	839	221.343801577959	149
0	841	222.926321658224	150
0	843	224.431233995279	151
0	851	225.793783188948	152
0	853	226.907320382457	153
0	855	228.128249242354	154
0	857	230.118917059071	155
0	865	232.038567274028	156
0	873	233.746388514211	157
0	883	234.892700120259	158
0	885	235.957322424894	159
0	887	236.997520271607	160
0	893	238.075079439825	161
0	895	239.684342990548	162
1	3	0.205631491707	0
1	13	4.083548243528	1
1	19	5.106739085469	2
1	27	6.287645826837	3
1	35	7.917193018099	4
1	41	11.126660931852	5
1	55	14.48953875239	6
1	59	15.721062455714	7
1	71	17.357983107241	8
1	79	22.005469118712	9
1	87	25.419314025006	10
1	95	26.600196505525	11
1	105	27.933532086494	12
1	111	30.752878606459	13
1	119	32.670327826918	14
1	127	35.770753880548	15
1	135	37.066998510439	16
1	141	38.874538729419	17
1	147	40.025129665946	18
1	155	41.208950639705	19
1	163	46.227589481969	20
1	175	47.86428209401	21
1	185	51.116066938005	22
1	193	54.540598930691	23
1	201	55.587538847761	24
1	209	57.47826704401	25
1	219	58.49629066249	26
1	225	60.423745406107	27
1	233	61.820218354865	28
1	237	63.113628842159	29
1	245	64.938624303879	30
1	249	66.249605805165	31
1	255	67.545711527442	32
1	259	69.35835908714	33
1	267	71.044641402919	34
1	281	77.058942765635	35
1	289	78.573870803094	36
1	299	81.281974586271	37
1	309	84.06244604097	38
1	317	87.120089570157	39
1	323	88.353150860124	40
1	333	90.9585287319	41
1	343	92.553640684662	42
1	363	100.326248316217	43
1	375	104.286902830074	44
1	387	105.376424462042	45
1	397	108.308257710802	46
1	405	109.926710026311	47
1	409	111.736741388564	48
1	421	114.299232238901	49
1	431	117.378648435235	50
1	439	118.410704001819	51
1	445	120.230731844849	52
1	453	123.113382545469	53
1	463	124.28062503975	54
1	467	126.216005677723	55
1	471	127.578193173715	56
1	477	128.689003866984	57
1	481	130.413133382868	58
1	491	131.635075026213	59
1	495	132.791518737448	60
1	503	134.10930257604	61
1	509	136.013528465669	62
1	517	137.165714463677	63
1	523	139.679392390413	64
1	527	140.73645116764	65
1	535	142.297573841767	66
1	539	143.810668431397	67
1	547	144.878560062665	68
1	555	146.493567876907	69
1	561	147.99083938918	70
1	575	149.719829578755	71
1	587	151.087685161017	72
1	597	152.936001532664	73
1	601	154.827977111113	74
1	611	158.180832526234	75
1	617	159.308302807346	76
1	621	160.968106385761	77
1	629	163.98273199629	78
1	637	165.317628092435	79
1	643	167.13858935216	80
1	649	170.300204946812	81
1	653	171.468285603402	82
1	657	172.671109323705	83
1	661	174.621860217338	84
1	665	176.513959062267	85
1	673	177.621898031708	86
1	679	178.73675758261	87
1	687	180.087503301967	88
1	697	181.767285100592	89
1	707	182.792946355575	90
1	715	184.776132544826	91
1	723	186.077463577016	92
1	731	187.789445074622	93
1	739	189.089335081517	94
1	745	192.687288925069	95
1	753	194.589838582429	96
1	767	195.931899262177	97
1	773	197.702644093061	98
1	779	201.293964431781	99
1	787	202.631904500005	100
1	793	204.038275925527	101
1	797	205.969855362859	102
1	805	209.239852549019	103
1	821	215.600198624053	104
1	829	218.155481433738	105
1	833	219.781851666412	106
1	845	224.445401240955	107
1	859	230.138810874355	108
1	867	232.049218069362	109
1	875	233.776227727803	110
1	889	237.045685662305	111
1	897	239.699266131821	112
2	5	0.228177698444	0
2	15	4.103571172425	1
2	23	5.145102305472	2
2	45	11.185803360353	3
2	63	15.755547819334	4
2	81	22.03212417282	5
2	97	26.618686069197	6
2	113	30.763542690499	7
2	121	32.694927582165	8
2	151	40.072568057416	9
2	165	46.244574055973	10
2	169	46.282101656273	11
2	187	51.128679246775	12
2	203	55.600719868282	13
2	213	57.530975289168	14
2	251	66.268687986388	15
2	261	69.389917809722	16
2	269	71.076186708508	17
2	283	77.06986513094	18
2	291	78.587963266695	19
2	319	87.138371298021	20
2	337	90.99624378444	21
2	347	92.593232252774	22
2	365	100.354493872577	23
2	379	104.323266441242	24
2	389	105.390536977688	25
2	399	108.338289515006	26
2	413	111.784080246254	27
2	423	114.311990153781	28
2	433	117.395696728062	29
2	441	118.448918829655	30
2	447	120.24193497236	31
2	457	123.185587829818	32
2	473	127.595487304935	33
2	485	130.438757590394	34
2	497	132.808145981326	35
2	505	134.13710052901	36
2	549	144.90774509458	37
2	557	146.509562520888	38
2	563	148.013614654248	39
2	567	148.057673768708	40
2	579	149.747401846758	41
2	589	151.106361678618	42
2	603	154.839571821586	43
2	623	160.978749346666	44
2	631	164.003388639132	45
2	639	165.351966394581	46
2	675	177.639261091066	47
2	689	180.098153204298	48
2	693	180.155069044401	49
2	699	181.810300928249	50
2	711	182.851570018724	51
2	725	186.089977087781	52
2	747	192.701723991782	53
2	757	194.635812047742	54
2	761	194.668919678685	55
2	769	195.958738815485	56
2	783	201.329499738794	57
2	789	202.650464553277	58
2	807	209.274489754029	59
2	835	219.793229361388	60
2	847	224.456544256039	61
2	869	232.060406792297	62
2	879	233.821095710513	63
3	7	0.247279696778	0
3	21	5.126005828445	1
3	29	6.329030996946	2
3	43	11.149880246609	3
3	61	15.735768388685	4
3	65	15.767041537884	5
3	89	25.433107226191	6
3	99	26.641907671349	7
3	129	35.789231825825	8
3	137	37.104691090015	9
3	143	38.88649167868	10
3	149	40.056827451207	11
3	167	46.272062370233	12
3	171	46.301564564429	13
3	177	47.879535173605	14
3	195	54.563576749345	15
3	211	57.515739191288	16
3	221	58.529127489011	17
3	227	60.455908355315	18
3	239	63.134147801595	19
3	263	69.430277191914	20
3	301	81.294658324039	21
3	311	84.077442371376	22
3	325	88.367800363688	23
3	335	90.971994008781	24
3	345	92.581249576928	25
3	349	92.611223447717	26
3	377	104.307773272614	27
3	381	104.334216963574	28
3	411	111.769689976189	29
3	415	111.821192191999	30
3	455	123.162723972705	31
3	459	123.205956842197	32
3	483	130.423448729862	33
3	511	136.026906815805	34
3	529	140.791969731905	35
3	541	143.821882579986	36
3	565	148.035490849361	37
3	569	148.097421195759	38
3	577	149.733450483798	39
3	581	149.757803019723	40
3	591	151.116928197009	41
3	613	158.19212948684	42
3	633	164.019177438982	43
3	667	176.534977265823	44
3	681	178.752932424105	45
3	691	180.132475057154	46
3	701	181.823871696631	47
3	709	182.839063384614	48
3	717	184.790756457672	49
3	733	187.810591162508	50
3	755	194.615056279255	51
3	759	194.646222166852	52
3	781	201.304612503347	53
3	799	206.006981564454	54
3	809	209.29661085016	55
3	823	215.61830735757	56
3	849	224.498667351078	57
3	861	230.157517210464	58
3	877	233.799108245448	59
3	891	237.069637554014	60
4	31	6.339223077347	0
4	47	11.223540707731	1
4	67	15.781750790711	2
4	91	25.448499070918	3
4	101	26.660963358466	4
4	115	30.781309603214	5
4	131	35.817018408448	6
4	179	47.916372021417	7
4	197	54.584291137016	8
4	205	55.617105853384	9
4	215	57.557626757298	10
4	229	60.467355753396	11
4	241	63.150027400293	12
4	285	77.089327795231	13
4	293	78.59883956837	14
4	303	81.306462974229	15
4	327	88.379839428587	16
4	339	91.016475890161	17
4	351	92.629832766428	18
4	367	100.384852017909	19
4	383	104.344393855608	20
4	391	105.404931670067	21
4	401	108.348505121097	22
4	425	114.339946436711	23
4	435	117.442577508841	24
4	487	130.454471777519	25
4	499	132.82490044398	26
4	513	136.04030945802	27
4	531	140.802605831729	28
4	543	143.832099617143	29
4	551	144.925302425332	30
4	571	148.112739422355	31
4	583	149.768655483853	32
4	593	151.159448335788	33
4	605	154.853493682064	34
4	669	176.549187423892	35
4	683	178.763438434766	36
4	703	181.834505142506	37
4	719	184.812947198816	38
4	727	186.106186034846	39
4	735	187.821802446486	40
4	749	192.715636083606	41
4	763	194.682028444268	42
4	811	209.323634484333	43
4	837	219.841543674624	44
4	863	230.174207024661	45
4	871	232.070766875747	46
4	881	233.837010416707	47
5	48	11.233540707731	0
5	68	15.791750790711	1
5	92	25.458499070918	2
5	132	35.827018408448	3
5	198	54.594291137016	4
5	206	55.627105853384	5
5	216	57.567626757298	6
5	230	60.477355753396	7
5	242	63.160027400293	8
5	286	77.099327795231	9
5	294	78.60883956837	10
5	368	100.394852017909	11
5	384	104.354393855608	12
5	392	105.414931670067	13
5	402	108.358505121097	14
5	426	114.349946436711	15
5	500	132.83490044398	16
5	514	136.05030945802	17
5	532	140.812605831729	18
5	544	143.842099617143	19
5	552	144.935302425332	20
5	594	151.169448335788	21
5	684	178.773438434766	22
5	736	187.831802446486	23
5	750	192.725636083606	24
5	838	219.851543674624	25
5	864	230.184207024661	26
5	882	233.847010416707	27

