version 2
run General-1-20230921-21:39:55-6137
attr configname General
attr datetime 20230921-21:39:55
attr experiment General
attr inifile omnetpp.ini
attr iterationvars ""
attr iterationvarsf ""
attr measurement ""
attr network Network2
attr processid 6137
attr repetition 1
attr replication #1
attr resultdir results
attr runnumber 1
attr seedset 1
param Network2.node[*].transmissionTime "uniform(1s, 2s)"
param Network2.node[*].delayTime "uniform(0.01s, 0.2s)"
param Network2.node[*].processingTime exponential(0.01s)
param Network2.node[*].lossProbability 0.2

vector 0 Network2.node[0] txVector ETV
vector 1 Network2.node[1] txVector ETV
vector 2 Network2.node[3] txVector ETV
vector 3 Network2.node[4] txVector ETV
vector 4 Network2.node[5] rxVector ETV
vector 5 Network2.node[2] txVector ETV
vector 6 Network2.node[6] txVector ETV
0	1	0.089234179703	0
0	24	2.086418987836	1
0	47	3.290871236825	2
0	70	4.809023785058	3
0	72	6.124539418963	4
0	95	7.811040343602	5
0	118	9.714410514922	6
0	141	11.414168876481	7
0	143	12.954957068084	8
0	145	14.402937251028	9
0	168	16.295073119575	10
0	191	17.56500101334	11
0	214	19.32792108052	12
0	237	21.257358314819	13
0	239	22.776220190223	14
0	241	23.948498547194	15
0	243	25.344811835443	16
0	245	26.452177143772	17
0	268	27.961987421964	18
0	291	29.762620095047	19
0	314	31.544578557717	20
0	337	33.125937487347	21
0	360	34.888510624994	22
0	362	36.518228133558	23
0	364	37.728402145789	24
0	366	39.48115770414	25
0	389	40.547694186564	26
0	412	41.713100299356	27
0	414	43.317410788848	28
0	433	44.866958708153	29
0	456	46.326503988937	30
0	458	48.171238434151	31
0	481	50.07663074613	32
0	496	51.311899072839	33
0	519	52.990967910154	34
0	542	54.688477405928	35
0	544	56.00586135697	36
0	567	57.627780725597	37
0	587	58.644243490067	38
0	610	60.456015003728	39
0	633	61.92289502581	40
0	656	62.931807705782	41
0	658	64.47581782576	42
0	681	66.129955173119	43
0	704	67.754585653192	44
0	727	69.014284045783	45
0	750	70.425638453451	46
0	773	71.79218155064	47
0	796	73.713315129628	48
0	815	75.224456603754	49
0	817	76.918863456113	50
0	840	78.375841363448	51
0	863	79.519264411995	52
0	886	81.104617397416	53
0	909	82.107635358929	54
0	932	83.852956870686	55
0	955	85.835374315152	56
0	957	87.485427902661	57
0	980	88.629370748879	58
0	1003	90.146638347184	59
0	1026	91.503048435434	60
0	1028	92.731862108338	61
0	1030	94.395964669877	62
0	1053	95.893214758833	63
0	1055	97.086675329947	64
0	1078	98.155106390243	65
0	1101	99.508112474227	66
0	1124	101.143629636032	67
0	1147	102.95361834613	68
0	1170	104.411719297872	69
0	1193	105.839456628191	70
0	1216	107.332724895443	71
0	1239	108.637242880997	72
0	1241	110.083653235457	73
0	1264	111.412472495691	74
0	1266	113.357780940014	75
0	1289	114.783342325942	76
0	1291	116.359790962304	77
0	1314	117.561257630468	78
0	1337	118.606102958669	79
0	1339	120.58815854613	80
0	1362	122.516216184127	81
0	1385	124.032904965917	82
0	1408	125.756142195894	83
0	1431	127.213502375523	84
0	1454	128.663640313663	85
0	1477	129.731447245574	86
0	1479	130.911563707164	87
0	1502	132.53089789103	88
0	1525	133.665236496015	89
0	1527	134.883336682918	90
0	1529	136.445168587726	91
0	1531	137.579322112605	92
0	1554	139.288139412526	93
0	1577	140.460744032284	94
0	1600	141.856747246926	95
0	1623	143.745133678309	96
0	1646	145.177686005245	97
0	1669	146.404983546465	98
0	1692	147.54132865823	99
0	1694	149.148344123151	100
0	1717	150.293809734166	101
0	1740	151.764814250751	102
0	1742	152.817808796067	103
0	1765	154.017304338396	104
0	1788	155.974732024476	105
0	1811	157.954215382107	106
0	1834	159.800727956577	107
0	1857	161.578196706597	108
0	1880	162.583707532959	109
0	1903	163.727314527027	110
0	1905	165.031761357208	111
0	1907	166.616290861388	112
0	1909	168.040846036627	113
0	1911	169.383403477139	114
0	1934	170.800452572174	115
0	1957	172.14961998339	116
0	1980	173.645174020316	117
0	2003	175.457681324446	118
0	2026	176.539028225347	119
0	2033	178.075036724444	120
0	2056	179.708760507751	121
0	2079	181.531763553267	122
0	2081	182.705761424612	123
0	2104	184.072096084824	124
0	2127	185.756314137133	125
0	2150	187.33178375696	126
0	2152	188.818534505201	127
0	2175	190.416999195583	128
0	2177	191.797956416963	129
0	2200	193.269651083622	130
0	2223	194.462207105357	131
0	2246	195.546699546158	132
0	2248	197.128729524903	133
0	2271	198.42210580257	134
0	2294	199.84843383508	135
0	2317	201.545582365824	136
0	2340	202.868235220315	137
0	2363	204.103312859425	138
0	2386	205.92895526753	139
0	2409	207.119794629162	140
0	2432	208.999151644178	141
0	2452	210.413071488843	142
0	2454	211.675071197443	143
0	2477	213.585877335511	144
0	2479	214.726992796521	145
0	2502	215.809191390286	146
0	2525	217.733932197206	147
0	2548	219.423337865966	148
0	2550	220.852133027157	149
0	2552	222.234233669583	150
0	2562	223.360947052827	151
0	2585	224.975962781226	152
0	2608	226.355078645162	153
0	2610	227.747901591351	154
0	2633	229.140874583618	155
0	2656	230.424618122512	156
0	2679	232.085216476693	157
0	2702	233.713417720393	158
0	2704	235.478144364775	159
0	2706	236.996425948449	160
0	2729	238.001742474147	161
0	2752	239.315396283398	162
1	3	0.126198958082	0
1	3	0.126198958082	1
1	3	0.126198958082	2
1	3	0.126198958082	3
1	26	2.117465960799	4
1	26	2.117465960799	5
1	26	2.117465960799	6
1	26	2.117465960799	7
1	49	3.320897541596	8
1	49	3.320897541596	9
1	49	3.320897541596	10
1	49	3.320897541596	11
1	74	6.152534856253	12
1	74	6.152534856253	13
1	74	6.152534856253	14
1	74	6.152534856253	15
1	97	7.822312888922	16
1	97	7.822312888922	17
1	97	7.822312888922	18
1	97	7.822312888922	19
1	120	9.725490091892	20
1	120	9.725490091892	21
1	120	9.725490091892	22
1	120	9.725490091892	23
1	147	14.417678722569	24
1	147	14.417678722569	25
1	147	14.417678722569	26
1	147	14.417678722569	27
1	170	16.327695828525	28
1	170	16.327695828525	29
1	170	16.327695828525	30
1	170	16.327695828525	31
1	193	17.589767362239	32
1	193	17.589767362239	33
1	193	17.589767362239	34
1	193	17.589767362239	35
1	216	19.34966188515	36
1	216	19.34966188515	37
1	216	19.34966188515	38
1	216	19.34966188515	39
1	247	26.463254501921	40
1	247	26.463254501921	41
1	247	26.463254501921	42
1	247	26.463254501921	43
1	270	27.974639771327	44
1	270	27.974639771327	45
1	270	27.974639771327	46
1	270	27.974639771327	47
1	293	29.782199792201	48
1	293	29.782199792201	49
1	293	29.782199792201	50
1	293	29.782199792201	51
1	316	31.589650802049	52
1	316	31.589650802049	53
1	316	31.589650802049	54
1	316	31.589650802049	55
1	339	33.142012366469	56
1	339	33.142012366469	57
1	339	33.142012366469	58
1	339	33.142012366469	59
1	368	39.494173014111	60
1	368	39.494173014111	61
1	368	39.494173014111	62
1	368	39.494173014111	63
1	391	40.569311570205	64
1	391	40.569311570205	65
1	391	40.569311570205	66
1	391	40.569311570205	67
1	416	43.353472237968	68
1	416	43.353472237968	69
1	416	43.353472237968	70
1	416	43.353472237968	71
1	435	44.909482325177	72
1	435	44.909482325177	73
1	435	44.909482325177	74
1	435	44.909482325177	75
1	460	48.187398078445	76
1	460	48.187398078445	77
1	460	48.187398078445	78
1	460	48.187398078445	79
1	483	50.103510150634	80
1	483	50.103510150634	81
1	483	50.103510150634	82
1	483	50.103510150634	83
1	498	51.346983091341	84
1	498	51.346983091341	85
1	498	51.346983091341	86
1	498	51.346983091341	87
1	521	53.001744541072	88
1	521	53.001744541072	89
1	521	53.001744541072	90
1	521	53.001744541072	91
1	546	56.021486885282	92
1	546	56.021486885282	93
1	546	56.021486885282	94
1	546	56.021486885282	95
1	569	57.64133035005	96
1	569	57.64133035005	97
1	569	57.64133035005	98
1	569	57.64133035005	99
1	589	58.664357491258	100
1	589	58.664357491258	101
1	589	58.664357491258	102
1	589	58.664357491258	103
1	612	60.470248831223	104
1	612	60.470248831223	105
1	612	60.470248831223	106
1	612	60.470248831223	107
1	635	61.939936377708	108
1	635	61.939936377708	109
1	635	61.939936377708	110
1	635	61.939936377708	111
1	660	64.48737904994	112
1	660	64.48737904994	113
1	660	64.48737904994	114
1	660	64.48737904994	115
1	683	66.14219000178	116
1	683	66.14219000178	117
1	683	66.14219000178	118
1	683	66.14219000178	119
1	706	67.76755717826	120
1	706	67.76755717826	121
1	706	67.76755717826	122
1	706	67.76755717826	123
1	729	69.058111697884	124
1	729	69.058111697884	125
1	729	69.058111697884	126
1	729	69.058111697884	127
1	752	70.455468591709	128
1	752	70.455468591709	129
1	752	70.455468591709	130
1	752	70.455468591709	131
1	775	71.80441892243	132
1	775	71.80441892243	133
1	775	71.80441892243	134
1	775	71.80441892243	135
1	798	73.731101130447	136
1	798	73.731101130447	137
1	798	73.731101130447	138
1	798	73.731101130447	139
1	819	76.93334626438	140
1	819	76.93334626438	141
1	819	76.93334626438	142
1	819	76.93334626438	143
1	842	78.386657661195	144
1	842	78.386657661195	145
1	842	78.386657661195	146
1	842	78.386657661195	147
1	865	79.540379321005	148
1	865	79.540379321005	149
1	865	79.540379321005	150
1	865	79.540379321005	151
1	888	81.14481637351	152
1	888	81.14481637351	153
1	888	81.14481637351	154
1	888	81.14481637351	155
1	911	82.120708076802	156
1	911	82.120708076802	157
1	911	82.120708076802	158
1	911	82.120708076802	159
1	934	83.866058038637	160
1	934	83.866058038637	161
1	934	83.866058038637	162
1	934	83.866058038637	163
1	959	87.499077829064	164
1	959	87.499077829064	165
1	959	87.499077829064	166
1	959	87.499077829064	167
1	982	88.664188566375	168
1	982	88.664188566375	169
1	982	88.664188566375	170
1	982	88.664188566375	171
1	1005	90.158277146184	172
1	1005	90.158277146184	173
1	1005	90.158277146184	174
1	1005	90.158277146184	175
1	1032	94.413283882364	176
1	1032	94.413283882364	177
1	1032	94.413283882364	178
1	1032	94.413283882364	179
1	1057	97.117849339213	180
1	1057	97.117849339213	181
1	1057	97.117849339213	182
1	1057	97.117849339213	183
1	1080	98.171880542161	184
1	1080	98.171880542161	185
1	1080	98.171880542161	186
1	1080	98.171880542161	187
1	1103	99.51849040642	188
1	1103	99.51849040642	189
1	1103	99.51849040642	190
1	1103	99.51849040642	191
1	1126	101.153756474684	192
1	1126	101.153756474684	193
1	1126	101.153756474684	194
1	1126	101.153756474684	195
1	1149	102.980377074853	196
1	1149	102.980377074853	197
1	1149	102.980377074853	198
1	1149	102.980377074853	199
1	1172	104.438206201429	200
1	1172	104.438206201429	201
1	1172	104.438206201429	202
1	1172	104.438206201429	203
1	1195	105.862697074941	204
1	1195	105.862697074941	205
1	1195	105.862697074941	206
1	1195	105.862697074941	207
1	1218	107.360734151728	208
1	1218	107.360734151728	209
1	1218	107.360734151728	210
1	1218	107.360734151728	211
1	1243	110.097870174154	212
1	1243	110.097870174154	213
1	1243	110.097870174154	214
1	1243	110.097870174154	215
1	1268	113.383021885783	216
1	1268	113.383021885783	217
1	1268	113.383021885783	218
1	1268	113.383021885783	219
1	1293	116.382539133237	220
1	1293	116.382539133237	221
1	1293	116.382539133237	222
1	1293	116.382539133237	223
1	1316	117.586727722982	224
1	1316	117.586727722982	225
1	1316	117.586727722982	226
1	1316	117.586727722982	227
1	1341	120.602248344734	228
1	1341	120.602248344734	229
1	1341	120.602248344734	230
1	1341	120.602248344734	231
1	1364	122.538490517594	232
1	1364	122.538490517594	233
1	1364	122.538490517594	234
1	1364	122.538490517594	235
1	1387	124.050391027593	236
1	1387	124.050391027593	237
1	1387	124.050391027593	238
1	1387	124.050391027593	239
1	1410	125.772014172212	240
1	1410	125.772014172212	241
1	1410	125.772014172212	242
1	1410	125.772014172212	243
1	1433	127.229719881013	244
1	1433	127.229719881013	245
1	1433	127.229719881013	246
1	1433	127.229719881013	247
1	1456	128.682156404704	248
1	1456	128.682156404704	249
1	1456	128.682156404704	250
1	1456	128.682156404704	251
1	1481	130.929729938288	252
1	1481	130.929729938288	253
1	1481	130.929729938288	254
1	1481	130.929729938288	255
1	1504	132.567187830735	256
1	1504	132.567187830735	257
1	1504	132.567187830735	258
1	1504	132.567187830735	259
1	1533	137.590985178443	260
1	1533	137.590985178443	261
1	1533	137.590985178443	262
1	1533	137.590985178443	263
1	1556	139.303392668608	264
1	1556	139.303392668608	265
1	1556	139.303392668608	266
1	1556	139.303392668608	267
1	1579	140.48383579143	268
1	1579	140.48383579143	269
1	1579	140.48383579143	270
1	1579	140.48383579143	271
1	1602	141.868785368526	272
1	1602	141.868785368526	273
1	1602	141.868785368526	274
1	1602	141.868785368526	275
1	1625	143.758617239665	276
1	1625	143.758617239665	277
1	1625	143.758617239665	278
1	1625	143.758617239665	279
1	1648	145.193213757147	280
1	1648	145.193213757147	281
1	1648	145.193213757147	282
1	1648	145.193213757147	283
1	1671	146.429915750301	284
1	1671	146.429915750301	285
1	1671	146.429915750301	286
1	1671	146.429915750301	287
1	1696	149.165469733257	288
1	1696	149.165469733257	289
1	1696	149.165469733257	290
1	1696	149.165469733257	291
1	1719	150.311552989131	292
1	1719	150.311552989131	293
1	1719	150.311552989131	294
1	1719	150.311552989131	295
1	1744	152.833303640487	296
1	1744	152.833303640487	297
1	1744	152.833303640487	298
1	1744	152.833303640487	299
1	1767	154.027974205896	300
1	1767	154.027974205896	301
1	1767	154.027974205896	302
1	1767	154.027974205896	303
1	1790	155.989263537889	304
1	1790	155.989263537889	305
1	1790	155.989263537889	306
1	1790	155.989263537889	307
1	1813	157.993307101715	308
1	1813	157.993307101715	309
1	1813	157.993307101715	310
1	1813	157.993307101715	311
1	1836	159.817556818303	312
1	1836	159.817556818303	313
1	1836	159.817556818303	314
1	1836	159.817556818303	315
1	1859	161.591744999727	316
1	1859	161.591744999727	317
1	1859	161.591744999727	318
1	1859	161.591744999727	319
1	1882	162.594576221015	320
1	1882	162.594576221015	321
1	1882	162.594576221015	322
1	1882	162.594576221015	323
1	1913	169.407709670697	324
1	1913	169.407709670697	325
1	1913	169.407709670697	326
1	1913	169.407709670697	327
1	1936	170.838138868299	328
1	1936	170.838138868299	329
1	1936	170.838138868299	330
1	1936	170.838138868299	331
1	1959	172.178961406853	332
1	1959	172.178961406853	333
1	1959	172.178961406853	334
1	1959	172.178961406853	335
1	1982	173.658512004136	336
1	1982	173.658512004136	337
1	1982	173.658512004136	338
1	1982	173.658512004136	339
1	2005	175.473160406591	340
1	2005	175.473160406591	341
1	2005	175.473160406591	342
1	2005	175.473160406591	343
1	2028	176.549434986242	344
1	2028	176.549434986242	345
1	2028	176.549434986242	346
1	2028	176.549434986242	347
1	2035	178.099482870484	348
1	2035	178.099482870484	349
1	2035	178.099482870484	350
1	2035	178.099482870484	351
1	2058	179.749079429208	352
1	2058	179.749079429208	353
1	2058	179.749079429208	354
1	2058	179.749079429208	355
1	2083	182.720145883749	356
1	2083	182.720145883749	357
1	2083	182.720145883749	358
1	2083	182.720145883749	359
1	2106	184.082767226761	360
1	2106	184.082767226761	361
1	2106	184.082767226761	362
1	2106	184.082767226761	363
1	2129	185.778333009813	364
1	2129	185.778333009813	365
1	2129	185.778333009813	366
1	2129	185.778333009813	367
1	2154	188.836026760241	368
1	2154	188.836026760241	369
1	2154	188.836026760241	370
1	2154	188.836026760241	371
1	2179	191.826745254563	372
1	2179	191.826745254563	373
1	2179	191.826745254563	374
1	2179	191.826745254563	375
1	2202	193.293631754053	376
1	2202	193.293631754053	377
1	2202	193.293631754053	378
1	2202	193.293631754053	379
1	2225	194.472778350568	380
1	2225	194.472778350568	381
1	2225	194.472778350568	382
1	2225	194.472778350568	383
1	2250	197.165173163298	384
1	2250	197.165173163298	385
1	2250	197.165173163298	386
1	2250	197.165173163298	387
1	2273	198.451683535112	388
1	2273	198.451683535112	389
1	2273	198.451683535112	390
1	2273	198.451683535112	391
1	2296	199.868072920489	392
1	2296	199.868072920489	393
1	2296	199.868072920489	394
1	2296	199.868072920489	395
1	2319	201.562052675685	396
1	2319	201.562052675685	397
1	2319	201.562052675685	398
1	2319	201.562052675685	399
1	2342	202.88442679397	400
1	2342	202.88442679397	401
1	2342	202.88442679397	402
1	2342	202.88442679397	403
1	2365	204.118275795102	404
1	2365	204.118275795102	405
1	2365	204.118275795102	406
1	2365	204.118275795102	407
1	2388	205.95791107324	408
1	2388	205.95791107324	409
1	2388	205.95791107324	410
1	2388	205.95791107324	411
1	2411	207.131421981341	412
1	2411	207.131421981341	413
1	2411	207.131421981341	414
1	2411	207.131421981341	415
1	2434	209.056163640106	416
1	2434	209.056163640106	417
1	2434	209.056163640106	418
1	2434	209.056163640106	419
1	2456	211.685296430082	420
1	2456	211.685296430082	421
1	2456	211.685296430082	422
1	2456	211.685296430082	423
1	2481	214.741080773165	424
1	2481	214.741080773165	425
1	2481	214.741080773165	426
1	2481	214.741080773165	427
1	2504	215.824085118007	428
1	2504	215.824085118007	429
1	2504	215.824085118007	430
1	2504	215.824085118007	431
1	2527	217.746709670633	432
1	2527	217.746709670633	433
1	2527	217.746709670633	434
1	2527	217.746709670633	435
1	2554	222.247034336518	436
1	2554	222.247034336518	437
1	2554	222.247034336518	438
1	2554	222.247034336518	439
1	2564	223.382107010838	440
1	2564	223.382107010838	441
1	2564	223.382107010838	442
1	2564	223.382107010838	443
1	2587	224.991340122004	444
1	2587	224.991340122004	445
1	2587	224.991340122004	446
1	2587	224.991340122004	447
1	2612	227.773538447754	448
1	2612	227.773538447754	449
1	2612	227.773538447754	450
1	2612	227.773538447754	451
1	2635	229.156294516897	452
1	2635	229.156294516897	453
1	2635	229.156294516897	454
1	2635	229.156294516897	455
1	2658	230.435557171816	456
1	2658	230.435557171816	457
1	2658	230.435557171816	458
1	2658	230.435557171816	459
1	2681	232.101442728236	460
1	2681	232.101442728236	461
1	2681	232.101442728236	462
1	2681	232.101442728236	463
1	2708	237.009672177145	464
1	2708	237.009672177145	465
1	2708	237.009672177145	466
1	2708	237.009672177145	467
1	2731	238.036147141968	468
1	2731	238.036147141968	469
1	2731	238.036147141968	470
1	2731	238.036147141968	471
1	2754	239.343831243066	472
1	2754	239.343831243066	473
1	2754	239.343831243066	474
1	2754	239.343831243066	475
2	8	0.205690100955	0
2	8	0.205690100955	1
2	8	0.205690100955	2
2	32	2.138566763985	3
2	32	2.138566763985	4
2	32	2.138566763985	5
2	54	3.331295920388	6
2	54	3.331295920388	7
2	54	3.331295920388	8
2	87	6.207196666811	9
2	87	6.207196666811	10
2	87	6.207196666811	11
2	108	7.851288516976	12
2	108	7.851288516976	13
2	108	7.851288516976	14
2	125	9.742283710129	15
2	125	9.742283710129	16
2	125	9.742283710129	17
2	161	14.45392159307	18
2	161	14.45392159307	19
2	161	14.45392159307	20
2	175	16.337813206662	21
2	175	16.337813206662	22
2	175	16.337813206662	23
2	199	17.609368349572	24
2	199	17.609368349572	25
2	199	17.609368349572	26
2	229	19.37663049298	27
2	229	19.37663049298	28
2	229	19.37663049298	29
2	253	26.481302486858	30
2	253	26.481302486858	31
2	253	26.481302486858	32
2	275	27.990206893316	33
2	275	27.990206893316	34
2	275	27.990206893316	35
2	298	29.802822319182	36
2	298	29.802822319182	37
2	298	29.802822319182	38
2	322	31.603198715566	39
2	322	31.603198715566	40
2	322	31.603198715566	41
2	352	33.212969770059	42
2	352	33.212969770059	43
2	352	33.212969770059	44
2	379	39.518774958581	45
2	379	39.518774958581	46
2	379	39.518774958581	47
2	397	40.588902987691	48
2	397	40.588902987691	49
2	397	40.588902987691	50
2	423	43.372868010377	51
2	423	43.372868010377	52
2	423	43.372868010377	53
2	441	44.921420554752	54
2	441	44.921420554752	55
2	441	44.921420554752	56
2	467	48.206003508459	57
2	467	48.206003508459	58
2	467	48.206003508459	59
2	512	51.394601526432	60
2	512	51.394601526432	61
2	512	51.394601526432	62
2	526	53.027322480331	63
2	526	53.027322480331	64
2	526	53.027322480331	65
2	552	56.043028808907	66
2	552	56.043028808907	67
2	552	56.043028808907	68
2	575	57.667533371401	69
2	575	57.667533371401	70
2	575	57.667533371401	71
2	594	58.675187243849	72
2	594	58.675187243849	73
2	594	58.675187243849	74
2	620	60.498498648419	75
2	620	60.498498648419	76
2	620	60.498498648419	77
2	648	61.986273411764	78
2	648	61.986273411764	79
2	648	61.986273411764	80
2	665	64.497874104265	81
2	665	64.497874104265	82
2	665	64.497874104265	83
2	688	66.153229654484	84
2	688	66.153229654484	85
2	688	66.153229654484	86
2	713	67.792649586186	87
2	713	67.792649586186	88
2	713	67.792649586186	89
2	735	69.076009838413	90
2	735	69.076009838413	91
2	735	69.076009838413	92
2	758	70.472154588668	93
2	758	70.472154588668	94
2	758	70.472154588668	95
2	780	71.816800988779	96
2	780	71.816800988779	97
2	780	71.816800988779	98
2	803	73.744082534732	99
2	803	73.744082534732	100
2	803	73.744082534732	101
2	832	76.966640729674	102
2	832	76.966640729674	103
2	832	76.966640729674	104
2	847	78.397348214857	105
2	847	78.397348214857	106
2	847	78.397348214857	107
2	878	79.59799822636	108
2	878	79.59799822636	109
2	878	79.59799822636	110
2	893	81.161962110625	111
2	893	81.161962110625	112
2	893	81.161962110625	113
2	917	82.133582906765	114
2	917	82.133582906765	115
2	917	82.133582906765	116
2	943	83.8908559751	117
2	943	83.8908559751	118
2	943	83.8908559751	119
2	964	87.517253976458	120
2	964	87.517253976458	121
2	964	87.517253976458	122
2	999	88.703943357169	123
2	999	88.703943357169	124
2	999	88.703943357169	125
2	1016	90.199721474794	126
2	1016	90.199721474794	127
2	1016	90.199721474794	128
2	1037	94.431740244543	129
2	1037	94.431740244543	130
2	1037	94.431740244543	131
2	1062	97.12968836675	132
2	1062	97.12968836675	133
2	1062	97.12968836675	134
2	1085	98.187674943304	135
2	1085	98.187674943304	136
2	1085	98.187674943304	137
2	1108	99.529823692504	138
2	1108	99.529823692504	139
2	1108	99.529823692504	140
2	1133	101.177764890609	141
2	1133	101.177764890609	142
2	1133	101.177764890609	143
2	1155	102.998598932737	144
2	1155	102.998598932737	145
2	1155	102.998598932737	146
2	1186	104.466760000904	147
2	1186	104.466760000904	148
2	1186	104.466760000904	149
2	1208	105.924845349845	150
2	1208	105.924845349845	151
2	1208	105.924845349845	152
2	1224	107.371795774065	153
2	1224	107.371795774065	154
2	1224	107.371795774065	155
2	1248	110.113823258271	156
2	1248	110.113823258271	157
2	1248	110.113823258271	158
2	1277	113.411056458182	159
2	1277	113.411056458182	160
2	1277	113.411056458182	161
2	1298	116.395571145954	162
2	1298	116.395571145954	163
2	1298	116.395571145954	164
2	1321	117.6042334517	165
2	1321	117.6042334517	166
2	1321	117.6042334517	167
2	1348	120.62646743302	168
2	1348	120.62646743302	169
2	1348	120.62646743302	170
2	1370	122.553996123915	171
2	1370	122.553996123915	172
2	1370	122.553996123915	173
2	1392	124.064798643135	174
2	1392	124.064798643135	175
2	1392	124.064798643135	176
2	1417	125.791141653908	177
2	1417	125.791141653908	178
2	1417	125.791141653908	179
2	1438	127.269683548804	180
2	1438	127.269683548804	181
2	1438	127.269683548804	182
2	1461	128.693073825869	183
2	1461	128.693073825869	184
2	1461	128.693073825869	185
2	1486	130.945512411587	186
2	1486	130.945512411587	187
2	1486	130.945512411587	188
2	1509	132.579994130382	189
2	1509	132.579994130382	190
2	1509	132.579994130382	191
2	1538	137.601126203782	192
2	1538	137.601126203782	193
2	1538	137.601126203782	194
2	1562	139.32084279647	195
2	1562	139.32084279647	196
2	1562	139.32084279647	197
2	1585	140.503347710825	198
2	1585	140.503347710825	199
2	1585	140.503347710825	200
2	1608	141.886872197092	201
2	1608	141.886872197092	202
2	1608	141.886872197092	203
2	1630	143.770537762888	204
2	1630	143.770537762888	205
2	1630	143.770537762888	206
2	1654	145.213377011995	207
2	1654	145.213377011995	208
2	1654	145.213377011995	209
2	1676	146.445518226079	210
2	1676	146.445518226079	211
2	1676	146.445518226079	212
2	1707	149.195209143947	213
2	1707	149.195209143947	214
2	1707	149.195209143947	215
2	1724	150.327139807102	216
2	1724	150.327139807102	217
2	1724	150.327139807102	218
2	1757	152.88648632935	219
2	1757	152.88648632935	220
2	1757	152.88648632935	221
2	1774	154.045432714137	222
2	1774	154.045432714137	223
2	1774	154.045432714137	224
2	1803	156.024639932482	225
2	1803	156.024639932482	226
2	1803	156.024639932482	227
2	1818	158.00362301023	228
2	1818	158.00362301023	229
2	1818	158.00362301023	230
2	1853	159.884781293947	231
2	1853	159.884781293947	232
2	1853	159.884781293947	233
2	1864	161.602005908822	234
2	1864	161.602005908822	235
2	1864	161.602005908822	236
2	1892	162.61895233748	237
2	1892	162.61895233748	238
2	1892	162.61895233748	239
2	1919	169.425872133787	240
2	1919	169.425872133787	241
2	1919	169.425872133787	242
2	1942	170.854562484838	243
2	1942	170.854562484838	244
2	1942	170.854562484838	245
2	1972	172.201480712454	246
2	1972	172.201480712454	247
2	1972	172.201480712454	248
2	1988	173.676339366531	249
2	1988	173.676339366531	250
2	1988	173.676339366531	251
2	2010	175.491301366826	252
2	2010	175.491301366826	253
2	2010	175.491301366826	254
2	2040	178.116658519787	255
2	2040	178.116658519787	256
2	2040	178.116658519787	257
2	2064	179.761759163056	258
2	2064	179.761759163056	259
2	2064	179.761759163056	260
2	2091	182.758950763206	261
2	2091	182.758950763206	262
2	2091	182.758950763206	263
2	2112	184.102174555535	264
2	2112	184.102174555535	265
2	2112	184.102174555535	266
2	2135	185.791829699092	267
2	2135	185.791829699092	268
2	2135	185.791829699092	269
2	2159	188.84806569326	270
2	2159	188.84806569326	271
2	2159	188.84806569326	272
2	2184	191.840986830006	273
2	2184	191.840986830006	274
2	2184	191.840986830006	275
2	2207	193.307610535279	276
2	2207	193.307610535279	277
2	2207	193.307610535279	278
2	2232	194.491690031272	279
2	2232	194.491690031272	280
2	2232	194.491690031272	281
2	2255	197.187950901894	282
2	2255	197.187950901894	283
2	2255	197.187950901894	284
2	2286	198.491594925772	285
2	2286	198.491594925772	286
2	2286	198.491594925772	287
2	2301	199.892377575936	288
2	2301	199.892377575936	289
2	2301	199.892377575936	290
2	2333	201.622968614612	291
2	2333	201.622968614612	292
2	2333	201.622968614612	293
2	2347	202.894684857688	294
2	2347	202.894684857688	295
2	2347	202.894684857688	296
2	2378	204.167786424045	297
2	2378	204.167786424045	298
2	2378	204.167786424045	299
2	2394	205.974348058325	300
2	2394	205.974348058325	301
2	2394	205.974348058325	302
2	2416	207.14620615456	303
2	2416	207.14620615456	304
2	2416	207.14620615456	305
2	2445	209.111389574333	306
2	2445	209.111389574333	307
2	2445	209.111389574333	308
2	2467	211.715522215335	309
2	2467	211.715522215335	310
2	2467	211.715522215335	311
2	2492	214.773745480301	312
2	2492	214.773745480301	313
2	2492	214.773745480301	314
2	2510	215.834178283555	315
2	2510	215.834178283555	316
2	2510	215.834178283555	317
2	2534	217.766880601584	318
2	2534	217.766880601584	319
2	2534	217.766880601584	320
2	2570	223.403450762032	321
2	2570	223.403450762032	322
2	2570	223.403450762032	323
2	2592	225.007951316906	324
2	2592	225.007951316906	325
2	2592	225.007951316906	326
2	2619	227.793477803136	327
2	2619	227.793477803136	328
2	2619	227.793477803136	329
2	2641	229.178352029937	330
2	2641	229.178352029937	331
2	2641	229.178352029937	332
2	2663	230.449694779678	333
2	2663	230.449694779678	334
2	2663	230.449694779678	335
2	2686	232.111933706539	336
2	2686	232.111933706539	337
2	2686	232.111933706539	338
2	2718	237.032094401271	339
2	2718	237.032094401271	340
2	2718	237.032094401271	341
2	2737	238.068784968498	342
2	2737	238.068784968498	343
2	2737	238.068784968498	344
2	2760	239.357251538024	345
2	2760	239.357251538024	346
2	2760	239.357251538024	347
3	12	0.217751247295	0
3	12	0.217751247295	1
3	12	0.217751247295	2
3	43	2.193002594483	3
3	43	2.193002594483	4
3	43	2.193002594483	5
3	64	3.34233117391	6
3	64	3.34233117391	7
3	64	3.34233117391	8
3	91	6.221679371396	9
3	91	6.221679371396	10
3	91	6.221679371396	11
3	107	7.84605993545	12
3	107	7.84605993545	13
3	107	7.84605993545	14
3	130	9.752747770327	15
3	130	9.752747770327	16
3	130	9.752747770327	17
3	160	14.452432399128	18
3	160	14.452432399128	19
3	160	14.452432399128	20
3	187	16.377647649159	21
3	187	16.377647649159	22
3	187	16.377647649159	23
3	210	17.64328635441	24
3	210	17.64328635441	25
3	210	17.64328635441	26
3	233	19.388969610037	27
3	233	19.388969610037	28
3	233	19.388969610037	29
3	262	26.494268119766	30
3	262	26.494268119766	31
3	262	26.494268119766	32
3	285	28.005799743909	33
3	285	28.005799743909	34
3	285	28.005799743909	35
3	302	29.847018885169	36
3	302	29.847018885169	37
3	302	29.847018885169	38
3	333	31.623884303479	39
3	333	31.623884303479	40
3	333	31.623884303479	41
3	356	33.23159031418	42
3	356	33.23159031418	43
3	356	33.23159031418	44
3	385	39.541596357201	45
3	385	39.541596357201	46
3	385	39.541596357201	47
3	405	40.600116058867	48
3	405	40.600116058867	49
3	405	40.600116058867	50
3	452	44.946214196424	51
3	452	44.946214196424	52
3	452	44.946214196424	53
3	477	48.218863013516	54
3	477	48.218863013516	55
3	477	48.218863013516	56
3	511	51.384917606936	57
3	511	51.384917606936	58
3	511	51.384917606936	59
3	531	53.0403904946	60
3	531	53.0403904946	61
3	531	53.0403904946	62
3	558	56.049435604126	63
3	558	56.049435604126	64
3	558	56.049435604126	65
3	580	57.669284891517	66
3	580	57.669284891517	67
3	580	57.669284891517	68
3	603	58.701892863511	69
3	603	58.701892863511	70
3	603	58.701892863511	71
3	629	60.510966390398	72
3	629	60.510966390398	73
3	629	60.510966390398	74
3	652	61.997930081728	75
3	652	61.997930081728	76
3	652	61.997930081728	77
3	675	64.529571557183	78
3	675	64.529571557183	79
3	675	64.529571557183	80
3	693	66.177469699876	81
3	693	66.177469699876	82
3	693	66.177469699876	83
3	723	67.804622502368	84
3	723	67.804622502368	85
3	723	67.804622502368	86
3	741	69.086275522438	87
3	741	69.086275522438	88
3	741	69.086275522438	89
3	766	70.485154548018	90
3	766	70.485154548018	91
3	766	70.485154548018	92
3	785	71.827080930998	93
3	785	71.827080930998	94
3	785	71.827080930998	95
3	836	76.987430857579	96
3	836	76.987430857579	97
3	836	76.987430857579	98
3	852	78.407629980861	99
3	852	78.407629980861	100
3	852	78.407629980861	101
3	882	79.608102409774	102
3	882	79.608102409774	103
3	882	79.608102409774	104
3	905	81.210528611956	105
3	905	81.210528611956	106
3	905	81.210528611956	107
3	924	82.145170430255	108
3	924	82.145170430255	109
3	924	82.145170430255	110
3	948	83.895617833372	111
3	948	83.895617833372	112
3	948	83.895617833372	113
3	972	87.537150901712	114
3	972	87.537150901712	115
3	972	87.537150901712	116
3	995	88.690716973915	117
3	995	88.690716973915	118
3	995	88.690716973915	119
3	1022	90.214013740617	120
3	1022	90.214013740617	121
3	1022	90.214013740617	122
3	1041	94.443436183481	123
3	1041	94.443436183481	124
3	1041	94.443436183481	125
3	1074	97.175458538249	126
3	1074	97.175458538249	127
3	1074	97.175458538249	128
3	1097	98.204538043453	129
3	1097	98.204538043453	130
3	1097	98.204538043453	131
3	1117	99.551526299058	132
3	1117	99.551526299058	133
3	1117	99.551526299058	134
3	1143	101.196074382953	135
3	1143	101.196074382953	136
3	1143	101.196074382953	137
3	1166	103.022948285742	138
3	1166	103.022948285742	139
3	1166	103.022948285742	140
3	1183	104.459165405527	141
3	1183	104.459165405527	142
3	1183	104.459165405527	143
3	1209	105.927213009921	144
3	1209	105.927213009921	145
3	1209	105.927213009921	146
3	1235	107.396616535608	147
3	1235	107.396616535608	148
3	1235	107.396616535608	149
3	1254	110.137643428216	150
3	1254	110.137643428216	151
3	1254	110.137643428216	152
3	1285	113.433820866495	153
3	1285	113.433820866495	154
3	1285	113.433820866495	155
3	1310	116.42106171846	156
3	1310	116.42106171846	157
3	1310	116.42106171846	158
3	1328	117.622242717333	159
3	1328	117.622242717333	160
3	1328	117.622242717333	161
3	1353	120.630668899414	162
3	1353	120.630668899414	163
3	1353	120.630668899414	164
3	1377	122.567220017021	165
3	1377	122.567220017021	166
3	1377	122.567220017021	167
3	1396	124.076935868235	168
3	1396	124.076935868235	169
3	1396	124.076935868235	170
3	1427	125.824553675673	171
3	1427	125.824553675673	172
3	1427	125.824553675673	173
3	1443	127.281432171904	174
3	1443	127.281432171904	175
3	1443	127.281432171904	176
3	1465	128.70597252573	177
3	1465	128.70597252573	178
3	1465	128.70597252573	179
3	1490	130.956402471157	180
3	1490	130.956402471157	181
3	1490	130.956402471157	182
3	1515	132.590699082147	183
3	1515	132.590699082147	184
3	1515	132.590699082147	185
3	1550	137.643568192213	186
3	1550	137.643568192213	187
3	1550	137.643568192213	188
3	1569	139.33828451041	189
3	1569	139.33828451041	190
3	1569	139.33828451041	191
3	1591	140.516847382814	192
3	1591	140.516847382814	193
3	1591	140.516847382814	194
3	1619	141.89759748795	195
3	1619	141.89759748795	196
3	1619	141.89759748795	197
3	1638	143.793152751551	198
3	1638	143.793152751551	199
3	1638	143.793152751551	200
3	1660	145.219915486328	201
3	1660	145.219915486328	202
3	1660	145.219915486328	203
3	1688	146.459710428446	204
3	1688	146.459710428446	205
3	1688	146.459710428446	206
3	1713	149.21458197999	207
3	1713	149.21458197999	208
3	1713	149.21458197999	209
3	1736	150.351047693208	210
3	1736	150.351047693208	211
3	1736	150.351047693208	212
3	1758	152.887604109438	213
3	1758	152.887604109438	214
3	1758	152.887604109438	215
3	1784	154.06025294932	216
3	1784	154.06025294932	217
3	1784	154.06025294932	218
3	1804	156.025114815166	219
3	1804	156.025114815166	220
3	1804	156.025114815166	221
3	1830	158.02359149098	222
3	1830	158.02359149098	223
3	1830	158.02359149098	224
3	1849	159.853065903842	225
3	1849	159.853065903842	226
3	1849	159.853065903842	227
3	1876	161.64580018907	228
3	1876	161.64580018907	229
3	1876	161.64580018907	230
3	1894	162.626011030205	231
3	1894	162.626011030205	232
3	1894	162.626011030205	233
3	1927	169.443608575067	234
3	1927	169.443608575067	235
3	1927	169.443608575067	236
3	1949	170.867613146535	237
3	1949	170.867613146535	238
3	1949	170.867613146535	239
3	1973	172.204386636524	240
3	1973	172.204386636524	241
3	1973	172.204386636524	242
3	1999	173.714654930646	243
3	1999	173.714654930646	244
3	1999	173.714654930646	245
3	2015	175.50167955553	246
3	2015	175.50167955553	247
3	2015	175.50167955553	248
3	2052	178.145477580495	249
3	2052	178.145477580495	250
3	2052	178.145477580495	251
3	2075	179.787173670259	252
3	2075	179.787173670259	253
3	2075	179.787173670259	254
3	2100	182.797363146678	255
3	2100	182.797363146678	256
3	2100	182.797363146678	257
3	2123	184.115267603492	258
3	2123	184.115267603492	259
3	2123	184.115267603492	260
3	2143	185.801853062015	261
3	2143	185.801853062015	262
3	2143	185.801853062015	263
3	2165	188.861866038468	264
3	2165	188.861866038468	265
3	2165	188.861866038468	266
3	2191	191.860550259273	267
3	2191	191.860550259273	268
3	2191	191.860550259273	269
3	2219	193.342062166967	270
3	2219	193.342062166967	271
3	2219	193.342062166967	272
3	2239	194.49425522608	273
3	2239	194.49425522608	274
3	2239	194.49425522608	275
3	2267	197.223642012122	276
3	2267	197.223642012122	277
3	2267	197.223642012122	278
3	2287	198.49828726818	279
3	2287	198.49828726818	280
3	2287	198.49828726818	281
3	2305	199.905040287822	282
3	2305	199.905040287822	283
3	2305	199.905040287822	284
3	2332	201.615346344165	285
3	2332	201.615346344165	286
3	2332	201.615346344165	287
3	2352	202.912595104684	288
3	2352	202.912595104684	289
3	2352	202.912595104684	290
3	2379	204.176671681917	291
3	2379	204.176671681917	292
3	2379	204.176671681917	293
3	2399	205.979794147221	294
3	2399	205.979794147221	295
3	2399	205.979794147221	296
3	2420	207.158096954482	297
3	2420	207.158096954482	298
3	2420	207.158096954482	299
3	2444	209.106658893517	300
3	2444	209.106658893517	301
3	2444	209.106658893517	302
3	2473	211.750791034348	303
3	2473	211.750791034348	304
3	2473	211.750791034348	305
3	2491	214.769713401162	306
3	2491	214.769713401162	307
3	2491	214.769713401162	308
3	2519	215.846378786655	309
3	2519	215.846378786655	310
3	2519	215.846378786655	311
3	2544	217.782632389458	312
3	2544	217.782632389458	313
3	2544	217.782632389458	314
3	2581	223.468771867659	315
3	2581	223.468771867659	316
3	2581	223.468771867659	317
3	2598	225.019007529582	318
3	2598	225.019007529582	319
3	2598	225.019007529582	320
3	2629	227.811857240684	321
3	2629	227.811857240684	322
3	2629	227.811857240684	323
3	2646	229.185935268138	324
3	2646	229.185935268138	325
3	2646	229.185935268138	326
3	2667	230.467416417714	327
3	2667	230.467416417714	328
3	2667	230.467416417714	329
3	2693	232.131019127961	330
3	2693	232.131019127961	331
3	2693	232.131019127961	332
3	2719	237.036278055957	333
3	2719	237.036278055957	334
3	2719	237.036278055957	335
3	2742	238.075547001142	336
3	2742	238.075547001142	337
3	2742	238.075547001142	338
3	2766	239.376339561817	339
3	2766	239.376339561817	340
3	2766	239.376339561817	341
4	15	0.227751247295	0
4	46	2.203002594483	1
4	69	3.35233117391	2
4	94	6.231679371396	3
4	111	7.85605993545	4
4	135	9.762747770327	5
4	164	14.462432399128	6
4	190	16.387647649159	7
4	213	17.65328635441	8
4	236	19.398969610037	9
4	267	26.504268119766	10
4	305	29.857018885169	11
4	336	31.633884303479	12
4	359	33.24159031418	13
4	388	39.551596357201	14
4	409	40.610116058867	15
4	455	44.956214196424	16
4	480	48.228863013516	17
4	515	51.394917606936	18
4	536	53.0503904946	19
4	566	56.059435604126	20
4	586	57.679284891517	21
4	632	60.520966390398	22
4	655	62.007930081728	23
4	680	64.539571557183	24
4	700	66.187469699876	25
4	726	67.814622502368	26
4	744	69.096275522438	27
4	770	70.495154548018	28
4	793	71.837080930998	29
4	857	78.417629980861	30
4	908	81.220528611956	31
4	931	82.155170430255	32
4	954	83.905617833372	33
4	979	87.547150901712	34
4	1025	90.224013740617	35
4	1045	94.453436183481	36
4	1077	97.185458538249	37
4	1100	98.214538043453	38
4	1121	99.561526299058	39
4	1146	101.206074382953	40
4	1169	103.032948285742	41
4	1189	104.469165405527	42
4	1238	107.406616535608	43
4	1263	110.147643428216	44
4	1288	113.443820866495	45
4	1313	116.43106171846	46
4	1332	117.632242717333	47
4	1361	120.640668899414	48
4	1384	122.577220017021	49
4	1430	125.834553675673	50
4	1450	127.291432171904	51
4	1468	128.71597252573	52
4	1494	130.966402471157	53
4	1524	132.600699082147	54
4	1553	137.653568192213	55
4	1576	139.34828451041	56
4	1594	140.526847382814	57
4	1622	141.90759748795	58
4	1645	143.803152751551	59
4	1668	145.229915486328	60
4	1691	146.469710428446	61
4	1764	152.897604109438	62
4	1787	154.07025294932	63
4	1810	156.035114815166	64
4	1833	158.03359149098	65
4	1852	159.863065903842	66
4	1879	161.65580018907	67
4	1902	162.636011030205	68
4	1930	169.453608575067	69
4	1956	170.877613146535	70
4	1979	172.214386636524	71
4	2002	173.724654930646	72
4	2021	175.51167955553	73
4	2055	178.155477580495	74
4	2078	179.797173670259	75
4	2103	182.807363146678	76
4	2126	184.125267603492	77
4	2147	185.811853062015	78
4	2195	191.870550259273	79
4	2245	194.50425522608	80
4	2293	198.50828726818	81
4	2308	199.915040287822	82
4	2336	201.625346344165	83
4	2358	202.922595104684	84
4	2385	204.186671681917	85
4	2405	205.989794147221	86
4	2423	207.168096954482	87
4	2448	209.116658893517	88
4	2476	211.760791034348	89
4	2496	214.779713401162	90
4	2524	215.856378786655	91
4	2547	217.792632389458	92
4	2584	223.478771867659	93
4	2607	225.029007529582	94
4	2632	227.821857240684	95
4	2653	229.195935268138	96
4	2696	232.141019127961	97
4	2726	237.046278055957	98
5	16	0.231991012083	0
5	16	0.231991012083	1
5	16	0.231991012083	2
5	16	0.231991012083	3
5	35	2.14850032361	4
5	35	2.14850032361	5
5	35	2.14850032361	6
5	35	2.14850032361	7
5	55	3.331786336882	8
5	55	3.331786336882	9
5	55	3.331786336882	10
5	55	3.331786336882	11
5	82	6.19610715268	12
5	82	6.19610715268	13
5	82	6.19610715268	14
5	82	6.19610715268	15
5	102	7.832508458473	16
5	102	7.832508458473	17
5	102	7.832508458473	18
5	102	7.832508458473	19
5	136	9.765435048994	20
5	136	9.765435048994	21
5	136	9.765435048994	22
5	136	9.765435048994	23
5	152	14.429486200853	24
5	152	14.429486200853	25
5	152	14.429486200853	26
5	152	14.429486200853	27
5	182	16.359010912843	28
5	182	16.359010912843	29
5	182	16.359010912843	30
5	182	16.359010912843	31
5	198	17.599796106759	32
5	198	17.599796106759	33
5	198	17.599796106759	34
5	198	17.599796106759	35
5	221	19.360388468404	36
5	221	19.360388468404	37
5	221	19.360388468404	38
5	221	19.360388468404	39
5	252	26.480994410443	40
5	252	26.480994410443	41
5	252	26.480994410443	42
5	252	26.480994410443	43
5	276	27.994131735941	44
5	276	27.994131735941	45
5	276	27.994131735941	46
5	276	27.994131735941	47
5	306	29.865414507872	48
5	306	29.865414507872	49
5	306	29.865414507872	50
5	306	29.865414507872	51
5	325	31.613158358431	52
5	325	31.613158358431	53
5	325	31.613158358431	54
5	325	31.613158358431	55
5	347	33.196767967621	56
5	347	33.196767967621	57
5	347	33.196767967621	58
5	347	33.196767967621	59
5	373	39.50571925711	60
5	373	39.50571925711	61
5	373	39.50571925711	62
5	373	39.50571925711	63
5	396	40.58198202939	64
5	396	40.58198202939	65
5	396	40.58198202939	66
5	396	40.58198202939	67
5	422	43.368066861473	68
5	422	43.368066861473	69
5	422	43.368066861473	70
5	422	43.368066861473	71
5	440	44.919633654245	72
5	440	44.919633654245	73
5	440	44.919633654245	74
5	440	44.919633654245	75
5	466	48.201648970181	76
5	466	48.201648970181	77
5	466	48.201648970181	78
5	466	48.201648970181	79
5	488	50.11554368494	80
5	488	50.11554368494	81
5	488	50.11554368494	82
5	488	50.11554368494	83
5	506	51.372566800771	84
5	506	51.372566800771	85
5	506	51.372566800771	86
5	506	51.372566800771	87
5	537	53.05081765926	88
5	537	53.05081765926	89
5	537	53.05081765926	90
5	537	53.05081765926	91
5	551	56.036952704513	92
5	551	56.036952704513	93
5	551	56.036952704513	94
5	551	56.036952704513	95
5	574	57.658832069154	96
5	574	57.658832069154	97
5	574	57.658832069154	98
5	574	57.658832069154	99
5	595	58.67910442417	100
5	595	58.67910442417	101
5	595	58.67910442417	102
5	595	58.67910442417	103
5	621	60.499023461288	104
5	621	60.499023461288	105
5	621	60.499023461288	106
5	621	60.499023461288	107
5	643	61.969019661912	108
5	643	61.969019661912	109
5	643	61.969019661912	110
5	643	61.969019661912	111
5	666	64.498941985258	112
5	666	64.498941985258	113
5	666	64.498941985258	114
5	666	64.498941985258	115
5	692	66.171439398652	116
5	692	66.171439398652	117
5	692	66.171439398652	118
5	692	66.171439398652	119
5	712	67.788714800156	120
5	712	67.788714800156	121
5	712	67.788714800156	122
5	712	67.788714800156	123
5	745	69.119127728135	124
5	745	69.119127728135	125
5	745	69.119127728135	126
5	745	69.119127728135	127
5	757	70.472009066584	128
5	757	70.472009066584	129
5	757	70.472009066584	130
5	757	70.472009066584	131
5	781	71.821522186245	132
5	781	71.821522186245	133
5	781	71.821522186245	134
5	781	71.821522186245	135
5	807	73.75450023823	136
5	807	73.75450023823	137
5	807	73.75450023823	138
5	807	73.75450023823	139
5	825	76.953391659431	140
5	825	76.953391659431	141
5	825	76.953391659431	142
5	825	76.953391659431	143
5	858	78.456177497485	144
5	858	78.456177497485	145
5	858	78.456177497485	146
5	858	78.456177497485	147
5	873	79.575875557954	148
5	873	79.575875557954	149
5	873	79.575875557954	150
5	873	79.575875557954	151
5	898	81.176904252634	152
5	898	81.176904252634	153
5	898	81.176904252634	154
5	898	81.176904252634	155
5	918	82.135830905811	156
5	918	82.135830905811	157
5	918	82.135830905811	158
5	918	82.135830905811	159
5	940	83.883022288694	160
5	940	83.883022288694	161
5	940	83.883022288694	162
5	940	83.883022288694	163
5	969	87.528702546809	164
5	969	87.528702546809	165
5	969	87.528702546809	166
5	969	87.528702546809	167
5	988	88.67595519713	168
5	988	88.67595519713	169
5	988	88.67595519713	170
5	988	88.67595519713	171
5	1010	90.177618999262	172
5	1010	90.177618999262	173
5	1010	90.177618999262	174
5	1010	90.177618999262	175
5	1042	94.447766809028	176
5	1042	94.447766809028	177
5	1042	94.447766809028	178
5	1042	94.447766809028	179
5	1067	97.164879135735	180
5	1067	97.164879135735	181
5	1067	97.164879135735	182
5	1067	97.164879135735	183
5	1086	98.190682112287	184
5	1086	98.190682112287	185
5	1086	98.190682112287	186
5	1086	98.190682112287	187
5	1109	99.534723964571	188
5	1109	99.534723964571	189
5	1109	99.534723964571	190
5	1109	99.534723964571	191
5	1132	101.175727675451	192
5	1132	101.175727675451	193
5	1132	101.175727675451	194
5	1132	101.175727675451	195
5	1154	102.993580777441	196
5	1154	102.993580777441	197
5	1154	102.993580777441	198
5	1154	102.993580777441	199
5	1177	104.448573771717	200
5	1177	104.448573771717	201
5	1177	104.448573771717	202
5	1177	104.448573771717	203
5	1203	105.905637231477	204
5	1203	105.905637231477	205
5	1203	105.905637231477	206
5	1203	105.905637231477	207
5	1225	107.380354840311	208
5	1225	107.380354840311	209
5	1225	107.380354840311	210
5	1225	107.380354840311	211
5	1253	110.133010050317	212
5	1253	110.133010050317	213
5	1253	110.133010050317	214
5	1253	110.133010050317	215
5	1276	113.406016044549	216
5	1276	113.406016044549	217
5	1276	113.406016044549	218
5	1276	113.406016044549	219
5	1300	116.399630307471	220
5	1300	116.399630307471	221
5	1300	116.399630307471	222
5	1300	116.399630307471	223
5	1329	117.628133138704	224
5	1329	117.628133138704	225
5	1329	117.628133138704	226
5	1329	117.628133138704	227
5	1346	120.617410420022	228
5	1346	120.617410420022	229
5	1346	120.617410420022	230
5	1346	120.617410420022	231
5	1373	122.562796876323	232
5	1373	122.562796876323	233
5	1373	122.562796876323	234
5	1373	122.562796876323	235
5	1401	124.089183657257	236
5	1401	124.089183657257	237
5	1401	124.089183657257	238
5	1401	124.089183657257	239
5	1416	125.791024351298	240
5	1416	125.791024351298	241
5	1416	125.791024351298	242
5	1416	125.791024351298	243
5	1442	127.281090132225	244
5	1442	127.281090132225	245
5	1442	127.281090132225	246
5	1442	127.281090132225	247
5	1469	128.717171530731	248
5	1469	128.717171530731	249
5	1469	128.717171530731	250
5	1469	128.717171530731	251
5	1497	130.972001733228	252
5	1497	130.972001733228	253
5	1497	130.972001733228	254
5	1497	130.972001733228	255
5	1510	132.581160826025	256
5	1510	132.581160826025	257
5	1510	132.581160826025	258
5	1510	132.581160826025	259
5	1545	137.623025726638	260
5	1545	137.623025726638	261
5	1545	137.623025726638	262
5	1545	137.623025726638	263
5	1568	139.332267488154	264
5	1568	139.332267488154	265
5	1568	139.332267488154	266
5	1568	139.332267488154	267
5	1595	140.529864800294	268
5	1595	140.529864800294	269
5	1595	140.529864800294	270
5	1595	140.529864800294	271
5	1607	141.881622180772	272
5	1607	141.881622180772	273
5	1607	141.881622180772	274
5	1607	141.881622180772	275
5	1637	143.783746900646	276
5	1637	143.783746900646	277
5	1637	143.783746900646	278
5	1637	143.783746900646	279
5	1653	145.204995178949	280
5	1653	145.204995178949	281
5	1653	145.204995178949	282
5	1653	145.204995178949	283
5	1677	146.44613032664	284
5	1677	146.44613032664	285
5	1677	146.44613032664	286
5	1677	146.44613032664	287
5	1701	149.177583605354	288
5	1701	149.177583605354	289
5	1701	149.177583605354	290
5	1701	149.177583605354	291
5	1725	150.327876630552	292
5	1725	150.327876630552	293
5	1725	150.327876630552	294
5	1725	150.327876630552	295
5	1752	152.865446376656	296
5	1752	152.865446376656	297
5	1752	152.865446376656	298
5	1752	152.865446376656	299
5	1773	154.044666577802	300
5	1773	154.044666577802	301
5	1773	154.044666577802	302
5	1773	154.044666577802	303
5	1795	156.009384406122	304
5	1795	156.009384406122	305
5	1795	156.009384406122	306
5	1795	156.009384406122	307
5	1819	158.010578410357	308
5	1819	158.010578410357	309
5	1819	158.010578410357	310
5	1819	158.010578410357	311
5	1841	159.830086959906	312
5	1841	159.830086959906	313
5	1841	159.830086959906	314
5	1841	159.830086959906	315
5	1866	161.607160187362	316
5	1866	161.607160187362	317
5	1866	161.607160187362	318
5	1866	161.607160187362	319
5	1887	162.606630914993	320
5	1887	162.606630914993	321
5	1887	162.606630914993	322
5	1887	162.606630914993	323
5	1918	169.421581399767	324
5	1918	169.421581399767	325
5	1918	169.421581399767	326
5	1918	169.421581399767	327
5	1945	170.863904356152	328
5	1945	170.863904356152	329
5	1945	170.863904356152	330
5	1945	170.863904356152	331
5	1964	172.189949673492	332
5	1964	172.189949673492	333
5	1964	172.189949673492	334
5	1964	172.189949673492	335
5	1989	173.680788914612	336
5	1989	173.680788914612	337
5	1989	173.680788914612	338
5	1989	173.680788914612	339
5	2018	175.505184921951	340
5	2018	175.505184921951	341
5	2018	175.505184921951	342
5	2018	175.505184921951	343
5	2041	178.118774522515	344
5	2041	178.118774522515	345
5	2041	178.118774522515	346
5	2041	178.118774522515	347
5	2070	179.775832147481	348
5	2070	179.775832147481	349
5	2070	179.775832147481	350
5	2070	179.775832147481	351
5	2092	182.760610621177	352
5	2092	182.760610621177	353
5	2092	182.760610621177	354
5	2092	182.760610621177	355
5	2113	184.104084282702	356
5	2113	184.104084282702	357
5	2113	184.104084282702	358
5	2113	184.104084282702	359
5	2134	185.791187066204	360
5	2134	185.791187066204	361
5	2134	185.791187066204	362
5	2134	185.791187066204	363
5	2160	188.853192910144	364
5	2160	188.853192910144	365
5	2160	188.853192910144	366
5	2160	188.853192910144	367
5	2192	191.869868081776	368
5	2192	191.869868081776	369
5	2192	191.869868081776	370
5	2192	191.869868081776	371
5	2211	193.328121216003	372
5	2211	193.328121216003	373
5	2211	193.328121216003	374
5	2211	193.328121216003	375
5	2231	194.484133520855	376
5	2231	194.484133520855	377
5	2231	194.484133520855	378
5	2231	194.484133520855	379
5	2256	197.194367481823	380
5	2256	197.194367481823	381
5	2256	197.194367481823	382
5	2256	197.194367481823	383
5	2281	198.478090920538	384
5	2281	198.478090920538	385
5	2281	198.478090920538	386
5	2281	198.478090920538	387
5	2309	199.925822380373	388
5	2309	199.925822380373	389
5	2309	199.925822380373	390
5	2309	199.925822380373	391
5	2327	201.601648367446	392
5	2327	201.601648367446	393
5	2327	201.601648367446	394
5	2327	201.601648367446	395
5	2355	202.920824363307	396
5	2355	202.920824363307	397
5	2355	202.920824363307	398
5	2355	202.920824363307	399
5	2373	204.150759834762	400
5	2373	204.150759834762	401
5	2373	204.150759834762	402
5	2373	204.150759834762	403
5	2393	205.969250036203	404
5	2393	205.969250036203	405
5	2393	205.969250036203	406
5	2393	205.969250036203	407
5	2424	207.189636611933	408
5	2424	207.189636611933	409
5	2424	207.189636611933	410
5	2424	207.189636611933	411
5	2439	209.095646667364	412
5	2439	209.095646667364	413
5	2439	209.095646667364	414
5	2439	209.095646667364	415
5	2461	211.7042123304	416
5	2461	211.7042123304	417
5	2461	211.7042123304	418
5	2461	211.7042123304	419
5	2486	214.753355223835	420
5	2486	214.753355223835	421
5	2486	214.753355223835	422
5	2486	214.753355223835	423
5	2509	215.834151411004	424
5	2509	215.834151411004	425
5	2509	215.834151411004	426
5	2509	215.834151411004	427
5	2533	217.76647132928	428
5	2533	217.76647132928	429
5	2533	217.76647132928	430
5	2533	217.76647132928	431
5	2576	223.418264882817	432
5	2576	223.418264882817	433
5	2576	223.418264882817	434
5	2576	223.418264882817	435
5	2597	225.018292389494	436
5	2597	225.018292389494	437
5	2597	225.018292389494	438
5	2597	225.018292389494	439
5	2617	227.78467151462	440
5	2617	227.78467151462	441
5	2617	227.78467151462	442
5	2617	227.78467151462	443
5	2640	229.174102745967	444
5	2640	229.174102745967	445
5	2640	229.174102745967	446
5	2640	229.174102745967	447
5	2671	230.482582592735	448
5	2671	230.482582592735	449
5	2671	230.482582592735	450
5	2671	230.482582592735	451
5	2697	232.149381304799	452
5	2697	232.149381304799	453
5	2697	232.149381304799	454
5	2697	232.149381304799	455
5	2713	237.020837254882	456
5	2713	237.020837254882	457
5	2713	237.020837254882	458
5	2713	237.020837254882	459
5	2736	238.064042848921	460
5	2736	238.064042848921	461
5	2736	238.064042848921	462
5	2736	238.064042848921	463
5	2767	239.380699388323	464
5	2767	239.380699388323	465
5	2767	239.380699388323	466
5	2767	239.380699388323	467
6	21	0.260719248752	0
6	21	0.260719248752	1
6	31	2.132866871297	2
6	31	2.132866871297	3
6	56	3.332758794486	4
6	56	3.332758794486	5
6	79	6.172317315069	6
6	79	6.172317315069	7
6	112	7.857185342869	8
6	112	7.857185342869	9
6	126	9.743268442847	10
6	126	9.743268442847	11
6	153	14.431952239268	12
6	153	14.431952239268	13
6	176	16.344589553052	14
6	176	16.344589553052	15
6	204	17.617283934194	16
6	204	17.617283934194	17
6	222	19.361136864153	18
6	222	19.361136864153	19
6	261	26.491708059845	20
6	261	26.491708059845	21
6	277	27.998577915762	22
6	277	27.998577915762	23
6	311	29.877064871855	24
6	311	29.877064871855	25
6	321	31.60193686304	26
6	321	31.60193686304	27
6	344	33.153590990743	28
6	344	33.153590990743	29
6	374	39.51437456228	30
6	374	39.51437456228	31
6	406	40.609074067419	32
6	406	40.609074067419	33
6	421	43.363826931882	34
6	421	43.363826931882	35
6	446	44.931037739465	36
6	446	44.931037739465	37
6	465	48.198750849409	38
6	465	48.198750849409	39
6	489	50.122397877538	40
6	489	50.122397877538	41
6	503	51.361708444723	42
6	503	51.361708444723	43
6	527	53.034823386889	44
6	527	53.034823386889	45
6	557	56.047053205118	46
6	557	56.047053205118	47
6	607	58.714995906711	48
6	607	58.714995906711	49
6	617	60.481748692103	50
6	617	60.481748692103	51
6	640	61.951651139063	52
6	640	61.951651139063	53
6	674	64.52031173618	54
6	674	64.52031173618	55
6	701	66.197514559383	56
6	701	66.197514559383	57
6	711	67.784745145669	58
6	711	67.784745145669	59
6	734	69.075586167366	60
6	734	69.075586167366	61
6	767	70.490117738351	62
6	767	70.490117738351	63
6	786	71.830443756139	64
6	786	71.830443756139	65
6	812	73.79397898679	66
6	812	73.79397898679	67
6	824	76.948253680834	68
6	824	76.948253680834	69
6	848	78.402793331236	70
6	848	78.402793331236	71
6	870	79.565497905375	72
6	870	79.565497905375	73
6	894	81.16739390518	74
6	894	81.16739390518	75
6	916	82.132612785541	76
6	916	82.132612785541	77
6	939	83.877385127837	78
6	939	83.877385127837	79
6	965	87.520797012337	80
6	965	87.520797012337	81
6	987	88.674801461232	82
6	987	88.674801461232	83
6	1015	90.198879001721	84
6	1015	90.198879001721	85
6	1050	94.480585427379	86
6	1050	94.480585427379	87
6	1066	97.163890160981	88
6	1066	97.163890160981	89
6	1087	98.191388178009	90
6	1087	98.191388178009	91
6	1118	99.559427246224	92
6	1118	99.559427246224	93
6	1131	101.172378628724	94
6	1131	101.172378628724	95
6	1156	103.001516256622	96
6	1156	103.001516256622	97
6	1178	104.454183960287	98
6	1178	104.454183960287	99
6	1200	105.883922970293	100
6	1200	105.883922970293	101
6	1223	107.371020919518	102
6	1223	107.371020919518	103
6	1252	110.131224471404	104
6	1252	110.131224471404	105
6	1273	113.39515691278	106
6	1273	113.39515691278	107
6	1299	116.396956196924	108
6	1299	116.396956196924	109
6	1322	117.610201442359	110
6	1322	117.610201442359	111
6	1347	120.624868920147	112
6	1347	120.624868920147	113
6	1369	122.550438622268	114
6	1369	122.550438622268	115
6	1397	124.084468651952	116
6	1397	124.084468651952	117
6	1415	125.786328991745	118
6	1415	125.786328991745	119
6	1451	127.305647630653	120
6	1451	127.305647630653	121
6	1474	128.756898777339	122
6	1474	128.756898777339	123
6	1491	130.959388536111	124
6	1491	130.959388536111	125
6	1511	132.587816788257	126
6	1511	132.587816788257	127
6	1539	137.603439211877	128
6	1539	137.603439211877	129
6	1561	139.314410493637	130
6	1561	139.314410493637	131
6	1584	140.4941527271	132
6	1584	140.4941527271	133
6	1609	141.887006077893	134
6	1609	141.887006077893	135
6	1631	143.772802026377	136
6	1631	143.772802026377	137
6	1659	145.216700810856	138
6	1659	145.216700810856	139
6	1678	146.446793152261	140
6	1678	146.446793152261	141
6	1706	149.192275541505	142
6	1706	149.192275541505	143
6	1726	150.330697657148	144
6	1726	150.330697657148	145
6	1749	152.852096908353	146
6	1749	152.852096908353	147
6	1772	154.038263251821	148
6	1772	154.038263251821	149
6	1796	156.010477391124	150
6	1796	156.010477391124	151
6	1820	158.011774182737	152
6	1820	158.011774182737	153
6	1842	159.83216765244	154
6	1842	159.83216765244	155
6	1865	161.605186168782	156
6	1865	161.605186168782	157
6	1893	162.620789502825	158
6	1893	162.620789502825	159
6	1931	169.468008566055	160
6	1931	169.468008566055	161
6	1941	170.851108027629	162
6	1941	170.851108027629	163
6	1965	172.190015438868	164
6	1965	172.190015438868	165
6	1987	173.671386032338	166
6	1987	173.671386032338	167
6	2011	175.494078760436	168
6	2011	175.494078760436	169
6	2042	178.119092117565	170
6	2042	178.119092117565	171
6	2063	179.759733815201	172
6	2063	179.759733815201	173
6	2088	182.739663353146	174
6	2088	182.739663353146	175
6	2111	184.099633962512	176
6	2111	184.099633962512	177
6	2144	185.808944010687	178
6	2144	185.808944010687	179
6	2164	188.859655414829	180
6	2164	188.859655414829	181
6	2185	191.845799383224	182
6	2185	191.845799383224	183
6	2212	193.328594223308	184
6	2212	193.328594223308	185
6	2230	194.483145699136	186
6	2230	194.483145699136	187
6	2260	197.201911368245	188
6	2260	197.201911368245	189
6	2278	198.465376690765	190
6	2278	198.465376690765	191
6	2314	199.939687312331	192
6	2314	199.939687312331	193
6	2324	201.573274747639	194
6	2324	201.573274747639	195
6	2351	202.907497844423	196
6	2351	202.907497844423	197
6	2370	204.135014920836	198
6	2370	204.135014920836	199
6	2406	206.001156513668	200
6	2406	206.001156513668	201
6	2425	207.190621984938	202
6	2425	207.190621984938	203
6	2462	211.706872313892	204
6	2462	211.706872313892	205
6	2493	214.775404604391	206
6	2493	214.775404604391	207
6	2511	215.841311167637	208
6	2511	215.841311167637	209
6	2532	217.760678235034	210
6	2532	217.760678235034	211
6	2559	222.265361304803	212
6	2559	222.265361304803	213
6	2569	223.399102299742	214
6	2569	223.399102299742	215
6	2593	225.010254915333	216
6	2593	225.010254915333	217
6	2618	227.786652661059	218
6	2618	227.786652661059	219
6	2650	229.192967412228	220
6	2650	229.192967412228	221
6	2676	230.500277872303	222
6	2676	230.500277872303	223
6	2687	232.118399263732	224
6	2687	232.118399263732	225
6	2723	237.046170931846	226
6	2723	237.046170931846	227
6	2746	238.082163285632	228
6	2746	238.082163285632	229
6	2759	239.357188459222	230
6	2759	239.357188459222	231

