version 2
run General-3-20230921-21:39:55-6137
attr configname General
attr datetime 20230921-21:39:55
attr experiment General
attr inifile omnetpp.ini
attr iterationvars ""
attr iterationvarsf ""
attr measurement ""
attr network Network2
attr processid 6137
attr repetition 3
attr replication #3
attr resultdir results
attr runnumber 3
attr seedset 3
param Network2.node[*].transmissionTime "uniform(1s, 2s)"
param Network2.node[*].delayTime "uniform(0.01s, 0.2s)"
param Network2.node[*].processingTime exponential(0.01s)
param Network2.node[*].lossProbability 0.2

vector 0 Network2.node[0] txVector ETV
vector 1 Network2.node[1] txVector ETV
vector 2 Network2.node[6] txVector ETV
vector 3 Network2.node[3] txVector ETV
vector 4 Network2.node[4] txVector ETV
vector 5 Network2.node[5] rxVector ETV
vector 6 Network2.node[2] txVector ETV
0	1	0.114651601831	0
0	19	1.185376482154	1
0	21	2.880200139316	2
0	44	4.02557028674	3
0	67	5.466024009347	4
0	90	6.865014965482	5
0	113	8.725548877217	6
0	136	10.241643496625	7
0	159	12.213246106006	8
0	161	13.905896722408	9
0	184	15.65803675244	10
0	207	17.500139940366	11
0	230	19.266292696422	12
0	232	21.158685888698	13
0	234	22.798862511826	14
0	257	23.942194826271	15
0	259	25.434010374428	16
0	261	26.563668758444	17
0	284	28.423722221352	18
0	307	30.164804622367	19
0	330	31.661469576949	20
0	353	33.495157461216	21
0	376	35.288919732741	22
0	399	37.031657005495	23
0	401	38.33778430179	24
0	403	39.621473751564	25
0	426	40.834368087186	26
0	449	42.633086358963	27
0	472	44.055710776544	28
0	474	45.99168295583	29
0	497	47.267235417219	30
0	520	49.106138824785	31
0	522	50.782135413794	32
0	545	52.228049524196	33
0	547	53.41500051955	34
0	570	55.089330894707	35
0	593	56.339519834679	36
0	616	58.13071058348	37
0	618	59.582722205037	38
0	641	61.117697784511	39
0	664	62.725041518753	40
0	687	64.72082782753	41
0	689	66.43885538012	42
0	712	67.848428610314	43
0	735	69.31296558778	44
0	745	71.080715111524	45
0	768	73.079062190207	46
0	791	74.37131896971	47
0	814	76.301940482177	48
0	837	77.66472840409	49
0	856	79.363657794494	50
0	879	80.424705862833	51
0	902	81.926066738853	52
0	925	83.30690785085	53
0	948	85.165939922046	54
0	971	87.00529720152	55
0	994	88.461227526723	56
0	1017	90.110539445255	57
0	1040	91.213795010766	58
0	1059	92.331957078606	59
0	1082	93.613206061835	60
0	1105	94.897446247118	61
0	1128	96.386157851501	62
0	1130	97.948833911514	63
0	1149	99.624794960555	64
0	1172	101.447783979189	65
0	1195	102.692760499727	66
0	1218	104.257044616921	67
0	1241	106.198898042387	68
0	1264	107.276300573556	69
0	1287	108.401295752099	70
0	1289	110.380036076598	71
0	1312	111.407178651841	72
0	1335	113.159061741383	73
0	1358	114.998791341038	74
0	1381	116.637249771339	75
0	1404	117.948929601182	76
0	1419	119.603212627881	77
0	1442	121.145412816732	78
0	1444	122.830198779768	79
0	1467	124.399019855373	80
0	1490	125.660992121157	81
0	1513	127.371860804102	82
0	1536	128.404552149186	83
0	1538	130.037288864441	84
0	1561	131.963406495349	85
0	1563	133.789931756509	86
0	1586	135.559481948912	87
0	1609	136.883048237134	88
0	1632	138.088756955993	89
0	1655	139.378238050333	90
0	1678	141.163171687695	91
0	1680	142.457382591973	92
0	1703	144.314011112853	93
0	1705	145.620406838899	94
0	1728	146.955615564549	95
0	1751	148.43741321617	96
0	1774	149.89293085674	97
0	1797	151.793524457907	98
0	1820	153.41290351336	99
0	1843	154.635620574068	100
0	1866	156.389944338074	101
0	1889	157.780048705472	102
0	1912	158.780444169717	103
0	1935	160.31379916223	104
0	1958	161.451590682215	105
0	1981	162.511221497853	106
0	2001	163.744326008784	107
0	2024	165.455507870831	108
0	2026	167.193298787645	109
0	2049	168.615644275279	110
0	2072	169.961593147901	111
0	2095	171.04636267952	112
0	2097	172.829801742289	113
0	2120	174.103300181286	114
0	2122	175.247206552954	115
0	2145	177.144868888029	116
0	2147	178.689035876489	117
0	2170	180.42426885648	118
0	2193	182.053400768035	119
0	2216	183.837915202671	120
0	2236	185.767590329119	121
0	2259	187.488623920896	122
0	2282	189.185691005153	123
0	2302	190.363816495587	124
0	2325	191.655432079521	125
0	2341	193.190441781024	126
0	2343	195.137387982637	127
0	2366	196.821938863324	128
0	2389	198.216185747946	129
0	2391	199.411699025493	130
0	2414	201.161045008406	131
0	2437	202.181189463774	132
0	2460	203.605392482898	133
0	2483	205.026992637732	134
0	2506	206.130621064988	135
0	2529	208.036848031518	136
0	2552	209.776938912061	137
0	2575	211.758124671944	138
0	2598	212.807194639298	139
0	2621	214.797210712054	140
0	2623	216.608596232788	141
0	2646	217.610555139904	142
0	2669	218.994227909318	143
0	2692	220.622341960271	144
0	2712	222.435449625899	145
0	2735	223.81855482382	146
0	2758	225.729272190782	147
0	2781	227.702359226367	148
0	2804	229.508066163233	149
0	2827	230.756464822518	150
0	2829	232.031564531915	151
0	2839	233.768234725643	152
0	2841	235.140645414192	153
0	2864	236.331538291948	154
0	2887	237.630064031875	155
0	2910	239.249289929934	156
1	3	0.14297423212	0
1	3	0.14297423212	1
1	3	0.14297423212	2
1	3	0.14297423212	3
1	23	2.896236354478	4
1	23	2.896236354478	5
1	23	2.896236354478	6
1	23	2.896236354478	7
1	46	4.03727660116	8
1	46	4.03727660116	9
1	46	4.03727660116	10
1	46	4.03727660116	11
1	69	5.481552673682	12
1	69	5.481552673682	13
1	69	5.481552673682	14
1	69	5.481552673682	15
1	92	6.883839969137	16
1	92	6.883839969137	17
1	92	6.883839969137	18
1	92	6.883839969137	19
1	115	8.741661456087	20
1	115	8.741661456087	21
1	115	8.741661456087	22
1	115	8.741661456087	23
1	138	10.254264734247	24
1	138	10.254264734247	25
1	138	10.254264734247	26
1	138	10.254264734247	27
1	163	13.917132154989	28
1	163	13.917132154989	29
1	163	13.917132154989	30
1	163	13.917132154989	31
1	186	15.681691961679	32
1	186	15.681691961679	33
1	186	15.681691961679	34
1	186	15.681691961679	35
1	209	17.512225579494	36
1	209	17.512225579494	37
1	209	17.512225579494	38
1	209	17.512225579494	39
1	236	22.814209032846	40
1	236	22.814209032846	41
1	236	22.814209032846	42
1	236	22.814209032846	43
1	263	26.576132853382	44
1	263	26.576132853382	45
1	263	26.576132853382	46
1	263	26.576132853382	47
1	286	28.43544237378	48
1	286	28.43544237378	49
1	286	28.43544237378	50
1	286	28.43544237378	51
1	309	30.186969790564	52
1	309	30.186969790564	53
1	309	30.186969790564	54
1	309	30.186969790564	55
1	332	31.692040861495	56
1	332	31.692040861495	57
1	332	31.692040861495	58
1	332	31.692040861495	59
1	355	33.509952812253	60
1	355	33.509952812253	61
1	355	33.509952812253	62
1	355	33.509952812253	63
1	378	35.302553656266	64
1	378	35.302553656266	65
1	378	35.302553656266	66
1	378	35.302553656266	67
1	405	39.636925619129	68
1	405	39.636925619129	69
1	405	39.636925619129	70
1	405	39.636925619129	71
1	428	40.846029687422	72
1	428	40.846029687422	73
1	428	40.846029687422	74
1	428	40.846029687422	75
1	451	42.656185602736	76
1	451	42.656185602736	77
1	451	42.656185602736	78
1	451	42.656185602736	79
1	476	46.003252885833	80
1	476	46.003252885833	81
1	476	46.003252885833	82
1	476	46.003252885833	83
1	499	47.288956159644	84
1	499	47.288956159644	85
1	499	47.288956159644	86
1	499	47.288956159644	87
1	524	50.803269736901	88
1	524	50.803269736901	89
1	524	50.803269736901	90
1	524	50.803269736901	91
1	549	53.44889917773	92
1	549	53.44889917773	93
1	549	53.44889917773	94
1	549	53.44889917773	95
1	572	55.124565782442	96
1	572	55.124565782442	97
1	572	55.124565782442	98
1	572	55.124565782442	99
1	595	56.349964643287	100
1	595	56.349964643287	101
1	595	56.349964643287	102
1	595	56.349964643287	103
1	620	59.604465170488	104
1	620	59.604465170488	105
1	620	59.604465170488	106
1	620	59.604465170488	107
1	643	61.158938705115	108
1	643	61.158938705115	109
1	643	61.158938705115	110
1	643	61.158938705115	111
1	666	62.735544523249	112
1	666	62.735544523249	113
1	666	62.735544523249	114
1	666	62.735544523249	115
1	691	66.458038271943	116
1	691	66.458038271943	117
1	691	66.458038271943	118
1	691	66.458038271943	119
1	714	67.858495777575	120
1	714	67.858495777575	121
1	714	67.858495777575	122
1	714	67.858495777575	123
1	737	69.323593001504	124
1	737	69.323593001504	125
1	737	69.323593001504	126
1	737	69.323593001504	127
1	747	71.10081171674	128
1	747	71.10081171674	129
1	747	71.10081171674	130
1	747	71.10081171674	131
1	770	73.093872027753	132
1	770	73.093872027753	133
1	770	73.093872027753	134
1	770	73.093872027753	135
1	793	74.395733655503	136
1	793	74.395733655503	137
1	793	74.395733655503	138
1	793	74.395733655503	139
1	816	76.325335842979	140
1	816	76.325335842979	141
1	816	76.325335842979	142
1	816	76.325335842979	143
1	839	77.68907427257	144
1	839	77.68907427257	145
1	839	77.68907427257	146
1	839	77.68907427257	147
1	858	79.375615084265	148
1	858	79.375615084265	149
1	858	79.375615084265	150
1	858	79.375615084265	151
1	881	80.465529234369	152
1	881	80.465529234369	153
1	881	80.465529234369	154
1	881	80.465529234369	155
1	904	81.949716168586	156
1	904	81.949716168586	157
1	904	81.949716168586	158
1	904	81.949716168586	159
1	927	83.327835961888	160
1	927	83.327835961888	161
1	927	83.327835961888	162
1	927	83.327835961888	163
1	950	85.184283213016	164
1	950	85.184283213016	165
1	950	85.184283213016	166
1	950	85.184283213016	167
1	973	87.020353918558	168
1	973	87.020353918558	169
1	973	87.020353918558	170
1	973	87.020353918558	171
1	996	88.472057134222	172
1	996	88.472057134222	173
1	996	88.472057134222	174
1	996	88.472057134222	175
1	1019	90.126106371284	176
1	1019	90.126106371284	177
1	1019	90.126106371284	178
1	1019	90.126106371284	179
1	1042	91.227228966269	180
1	1042	91.227228966269	181
1	1042	91.227228966269	182
1	1042	91.227228966269	183
1	1061	92.344528227847	184
1	1061	92.344528227847	185
1	1061	92.344528227847	186
1	1061	92.344528227847	187
1	1084	93.628916809525	188
1	1084	93.628916809525	189
1	1084	93.628916809525	190
1	1084	93.628916809525	191
1	1107	94.936273225314	192
1	1107	94.936273225314	193
1	1107	94.936273225314	194
1	1107	94.936273225314	195
1	1132	97.968863803441	196
1	1132	97.968863803441	197
1	1132	97.968863803441	198
1	1132	97.968863803441	199
1	1151	99.649972499835	200
1	1151	99.649972499835	201
1	1151	99.649972499835	202
1	1151	99.649972499835	203
1	1174	101.462994464259	204
1	1174	101.462994464259	205
1	1174	101.462994464259	206
1	1174	101.462994464259	207
1	1197	102.705106753909	208
1	1197	102.705106753909	209
1	1197	102.705106753909	210
1	1197	102.705106753909	211
1	1220	104.273669926655	212
1	1220	104.273669926655	213
1	1220	104.273669926655	214
1	1220	104.273669926655	215
1	1243	106.216013480799	216
1	1243	106.216013480799	217
1	1243	106.216013480799	218
1	1243	106.216013480799	219
1	1266	107.287879063179	220
1	1266	107.287879063179	221
1	1266	107.287879063179	222
1	1266	107.287879063179	223
1	1291	110.397630567183	224
1	1291	110.397630567183	225
1	1291	110.397630567183	226
1	1291	110.397630567183	227
1	1314	111.420653792816	228
1	1314	111.420653792816	229
1	1314	111.420653792816	230
1	1314	111.420653792816	231
1	1337	113.169486067374	232
1	1337	113.169486067374	233
1	1337	113.169486067374	234
1	1337	113.169486067374	235
1	1360	115.0146559617	236
1	1360	115.0146559617	237
1	1360	115.0146559617	238
1	1360	115.0146559617	239
1	1383	116.664379606746	240
1	1383	116.664379606746	241
1	1383	116.664379606746	242
1	1383	116.664379606746	243
1	1406	117.964432407292	244
1	1406	117.964432407292	245
1	1406	117.964432407292	246
1	1406	117.964432407292	247
1	1421	119.6177276634	248
1	1421	119.6177276634	249
1	1421	119.6177276634	250
1	1421	119.6177276634	251
1	1446	122.841086564523	252
1	1446	122.841086564523	253
1	1446	122.841086564523	254
1	1446	122.841086564523	255
1	1469	124.416873164634	256
1	1469	124.416873164634	257
1	1469	124.416873164634	258
1	1469	124.416873164634	259
1	1492	125.674613759536	260
1	1492	125.674613759536	261
1	1492	125.674613759536	262
1	1492	125.674613759536	263
1	1515	127.386116494395	264
1	1515	127.386116494395	265
1	1515	127.386116494395	266
1	1515	127.386116494395	267
1	1540	130.047678225928	268
1	1540	130.047678225928	269
1	1540	130.047678225928	270
1	1540	130.047678225928	271
1	1565	133.801952839091	272
1	1565	133.801952839091	273
1	1565	133.801952839091	274
1	1565	133.801952839091	275
1	1588	135.581501015068	276
1	1588	135.581501015068	277
1	1588	135.581501015068	278
1	1588	135.581501015068	279
1	1611	136.913683506748	280
1	1611	136.913683506748	281
1	1611	136.913683506748	282
1	1611	136.913683506748	283
1	1634	138.107926166693	284
1	1634	138.107926166693	285
1	1634	138.107926166693	286
1	1634	138.107926166693	287
1	1657	139.397256893081	288
1	1657	139.397256893081	289
1	1657	139.397256893081	290
1	1657	139.397256893081	291
1	1682	142.481749300781	292
1	1682	142.481749300781	293
1	1682	142.481749300781	294
1	1682	142.481749300781	295
1	1707	145.631394001983	296
1	1707	145.631394001983	297
1	1707	145.631394001983	298
1	1707	145.631394001983	299
1	1730	146.99121135384	300
1	1730	146.99121135384	301
1	1730	146.99121135384	302
1	1730	146.99121135384	303
1	1753	148.449639558759	304
1	1753	148.449639558759	305
1	1753	148.449639558759	306
1	1753	148.449639558759	307
1	1776	149.924161310434	308
1	1776	149.924161310434	309
1	1776	149.924161310434	310
1	1776	149.924161310434	311
1	1799	151.80478261228	312
1	1799	151.80478261228	313
1	1799	151.80478261228	314
1	1799	151.80478261228	315
1	1822	153.445585775789	316
1	1822	153.445585775789	317
1	1822	153.445585775789	318
1	1822	153.445585775789	319
1	1845	154.660560944031	320
1	1845	154.660560944031	321
1	1845	154.660560944031	322
1	1845	154.660560944031	323
1	1868	156.405201077568	324
1	1868	156.405201077568	325
1	1868	156.405201077568	326
1	1868	156.405201077568	327
1	1891	157.792475750259	328
1	1891	157.792475750259	329
1	1891	157.792475750259	330
1	1891	157.792475750259	331
1	1914	158.792361946839	332
1	1914	158.792361946839	333
1	1914	158.792361946839	334
1	1914	158.792361946839	335
1	1937	160.332529447314	336
1	1937	160.332529447314	337
1	1937	160.332529447314	338
1	1937	160.332529447314	339
1	1960	161.485411583592	340
1	1960	161.485411583592	341
1	1960	161.485411583592	342
1	1960	161.485411583592	343
1	1983	162.533567041472	344
1	1983	162.533567041472	345
1	1983	162.533567041472	346
1	1983	162.533567041472	347
1	2003	163.755406014085	348
1	2003	163.755406014085	349
1	2003	163.755406014085	350
1	2003	163.755406014085	351
1	2028	167.207494021118	352
1	2028	167.207494021118	353
1	2028	167.207494021118	354
1	2028	167.207494021118	355
1	2051	168.626914505955	356
1	2051	168.626914505955	357
1	2051	168.626914505955	358
1	2051	168.626914505955	359
1	2074	169.975279323405	360
1	2074	169.975279323405	361
1	2074	169.975279323405	362
1	2074	169.975279323405	363
1	2099	172.841225959196	364
1	2099	172.841225959196	365
1	2099	172.841225959196	366
1	2099	172.841225959196	367
1	2124	175.260325288694	368
1	2124	175.260325288694	369
1	2124	175.260325288694	370
1	2124	175.260325288694	371
1	2149	178.714275307187	372
1	2149	178.714275307187	373
1	2149	178.714275307187	374
1	2149	178.714275307187	375
1	2172	180.456652269939	376
1	2172	180.456652269939	377
1	2172	180.456652269939	378
1	2172	180.456652269939	379
1	2195	182.066859846583	380
1	2195	182.066859846583	381
1	2195	182.066859846583	382
1	2195	182.066859846583	383
1	2218	183.85463478826	384
1	2218	183.85463478826	385
1	2218	183.85463478826	386
1	2218	183.85463478826	387
1	2238	185.803010085451	388
1	2238	185.803010085451	389
1	2238	185.803010085451	390
1	2238	185.803010085451	391
1	2261	187.503598104014	392
1	2261	187.503598104014	393
1	2261	187.503598104014	394
1	2261	187.503598104014	395
1	2284	189.205444845136	396
1	2284	189.205444845136	397
1	2284	189.205444845136	398
1	2284	189.205444845136	399
1	2304	190.380689131375	400
1	2304	190.380689131375	401
1	2304	190.380689131375	402
1	2304	190.380689131375	403
1	2327	191.672331701954	404
1	2327	191.672331701954	405
1	2327	191.672331701954	406
1	2327	191.672331701954	407
1	2345	195.149400218456	408
1	2345	195.149400218456	409
1	2345	195.149400218456	410
1	2345	195.149400218456	411
1	2368	196.837014129529	412
1	2368	196.837014129529	413
1	2368	196.837014129529	414
1	2368	196.837014129529	415
1	2393	199.471700148945	416
1	2393	199.471700148945	417
1	2393	199.471700148945	418
1	2393	199.471700148945	419
1	2416	201.183038358273	420
1	2416	201.183038358273	421
1	2416	201.183038358273	422
1	2416	201.183038358273	423
1	2439	202.19861967166	424
1	2439	202.19861967166	425
1	2439	202.19861967166	426
1	2439	202.19861967166	427
1	2462	203.62898340116	428
1	2462	203.62898340116	429
1	2462	203.62898340116	430
1	2462	203.62898340116	431
1	2485	205.052962308593	432
1	2485	205.052962308593	433
1	2485	205.052962308593	434
1	2485	205.052962308593	435
1	2508	206.166402173127	436
1	2508	206.166402173127	437
1	2508	206.166402173127	438
1	2508	206.166402173127	439
1	2531	208.048852179986	440
1	2531	208.048852179986	441
1	2531	208.048852179986	442
1	2531	208.048852179986	443
1	2554	209.789840743648	444
1	2554	209.789840743648	445
1	2554	209.789840743648	446
1	2554	209.789840743648	447
1	2577	211.772202900008	448
1	2577	211.772202900008	449
1	2577	211.772202900008	450
1	2577	211.772202900008	451
1	2600	212.820111996926	452
1	2600	212.820111996926	453
1	2600	212.820111996926	454
1	2600	212.820111996926	455
1	2625	216.63304894977	456
1	2625	216.63304894977	457
1	2625	216.63304894977	458
1	2625	216.63304894977	459
1	2648	217.652623137871	460
1	2648	217.652623137871	461
1	2648	217.652623137871	462
1	2648	217.652623137871	463
1	2671	219.006539258358	464
1	2671	219.006539258358	465
1	2671	219.006539258358	466
1	2671	219.006539258358	467
1	2694	220.640034701129	468
1	2694	220.640034701129	469
1	2694	220.640034701129	470
1	2694	220.640034701129	471
1	2714	222.447665467904	472
1	2714	222.447665467904	473
1	2714	222.447665467904	474
1	2714	222.447665467904	475
1	2737	223.837227573985	476
1	2737	223.837227573985	477
1	2737	223.837227573985	478
1	2737	223.837227573985	479
1	2760	225.748095224074	480
1	2760	225.748095224074	481
1	2760	225.748095224074	482
1	2760	225.748095224074	483
1	2783	227.716961184596	484
1	2783	227.716961184596	485
1	2783	227.716961184596	486
1	2783	227.716961184596	487
1	2806	229.539275595475	488
1	2806	229.539275595475	489
1	2806	229.539275595475	490
1	2806	229.539275595475	491
1	2831	232.043474484596	492
1	2831	232.043474484596	493
1	2831	232.043474484596	494
1	2831	232.043474484596	495
1	2843	235.151857129183	496
1	2843	235.151857129183	497
1	2843	235.151857129183	498
1	2843	235.151857129183	499
1	2866	236.345515271701	500
1	2866	236.345515271701	501
1	2866	236.345515271701	502
1	2866	236.345515271701	503
1	2889	237.655442591109	504
1	2889	237.655442591109	505
1	2889	237.655442591109	506
1	2889	237.655442591109	507
1	2912	239.261429284451	508
1	2912	239.261429284451	509
1	2912	239.261429284451	510
1	2912	239.261429284451	511
2	8	0.158720088868	0
2	8	0.158720088868	1
2	29	2.915173402017	2
2	29	2.915173402017	3
2	51	4.050255074019	4
2	51	4.050255074019	5
2	74	5.49604002407	6
2	74	5.49604002407	7
2	97	6.894621748177	8
2	97	6.894621748177	9
2	121	8.762691720405	10
2	121	8.762691720405	11
2	145	10.271308313268	12
2	145	10.271308313268	13
2	168	13.931130535058	14
2	168	13.931130535058	15
2	191	15.695024439295	16
2	191	15.695024439295	17
2	224	17.548660085216	18
2	224	17.548660085216	19
2	245	22.837328627395	20
2	245	22.837328627395	21
2	269	26.589148568558	22
2	269	26.589148568558	23
2	301	28.47068222738	24
2	301	28.47068222738	25
2	314	30.199263164618	26
2	314	30.199263164618	27
2	341	31.719864563751	28
2	341	31.719864563751	29
2	361	33.525733204127	30
2	361	33.525733204127	31
2	393	35.350699177335	32
2	393	35.350699177335	33
2	410	39.652658962734	34
2	410	39.652658962734	35
2	433	40.856158062833	36
2	433	40.856158062833	37
2	461	42.679804719676	38
2	461	42.679804719676	39
2	482	46.013934281231	40
2	482	46.013934281231	41
2	508	47.317563846033	42
2	508	47.317563846033	43
2	538	50.833886402991	44
2	538	50.833886402991	45
2	564	53.505288865181	46
2	564	53.505288865181	47
2	578	55.142328291253	48
2	578	55.142328291253	49
2	600	56.36084291322	50
2	600	56.36084291322	51
2	625	59.615542517429	52
2	625	59.615542517429	53
2	649	61.176985242912	54
2	649	61.176985242912	55
2	680	62.769857717696	56
2	680	62.769857717696	57
2	702	66.492628291333	58
2	702	66.492628291333	59
2	724	67.890457587782	60
2	724	67.890457587782	61
2	742	69.34439131087	62
2	742	69.34439131087	63
2	753	71.114265280352	64
2	753	71.114265280352	65
2	776	73.116008139065	66
2	776	73.116008139065	67
2	799	74.412916738166	68
2	799	74.412916738166	69
2	823	76.342863457644	70
2	823	76.342863457644	71
2	849	77.720341839488	72
2	849	77.720341839488	73
2	864	79.389512488719	74
2	864	79.389512488719	75
2	886	80.486353645845	76
2	886	80.486353645845	77
2	909	81.966623773324	78
2	909	81.966623773324	79
2	932	83.343552101798	80
2	932	83.343552101798	81
2	956	85.201563078755	82
2	956	85.201563078755	83
2	988	87.048929545874	84
2	988	87.048929545874	85
2	1002	88.48965687698	86
2	1002	88.48965687698	87
2	1024	90.137819541272	88
2	1024	90.137819541272	89
2	1047	91.242405541603	90
2	1047	91.242405541603	91
2	1066	92.357739306633	92
2	1066	92.357739306633	93
2	1090	93.645727071249	94
2	1090	93.645727071249	95
2	1113	94.95011269	96
2	1113	94.95011269	97
2	1137	97.981567299752	98
2	1137	97.981567299752	99
2	1156	99.665113655931	100
2	1156	99.665113655931	101
2	1181	101.488274902986	102
2	1181	101.488274902986	103
2	1202	102.725491219843	104
2	1202	102.725491219843	105
2	1225	104.286671591407	106
2	1225	104.286671591407	107
2	1248	106.226984397169	108
2	1248	106.226984397169	109
2	1281	107.319909627226	110
2	1281	107.319909627226	111
2	1297	110.416775950043	112
2	1297	110.416775950043	113
2	1320	111.435898679365	114
2	1320	111.435898679365	115
2	1343	113.183731129301	116
2	1343	113.183731129301	117
2	1365	115.028050002127	118
2	1365	115.028050002127	119
2	1394	116.68855491512	120
2	1394	116.68855491512	121
2	1416	117.9933704598	122
2	1416	117.9933704598	123
2	1433	119.667643426754	124
2	1433	119.667643426754	125
2	1451	122.863161739745	126
2	1451	122.863161739745	127
2	1474	124.429144854528	128
2	1474	124.429144854528	129
2	1499	125.69390444379	130
2	1499	125.69390444379	131
2	1533	127.42185693081	132
2	1533	127.42185693081	133
2	1547	130.070914842199	134
2	1547	130.070914842199	135
2	1575	133.824175800754	136
2	1575	133.824175800754	137
2	1594	135.600346440091	138
2	1594	135.600346440091	139
2	1625	136.948691257776	140
2	1625	136.948691257776	141
2	1639	138.122837560579	142
2	1639	138.122837560579	143
2	1672	139.439552572814	144
2	1672	139.439552572814	145
2	1688	142.496691912635	146
2	1688	142.496691912635	147
2	1712	145.65484363526	148
2	1712	145.65484363526	149
2	1745	147.025370944457	150
2	1745	147.025370944457	151
2	1771	148.519295284238	152
2	1771	148.519295284238	153
2	1787	149.946048317366	154
2	1787	149.946048317366	155
2	1804	151.81716335146	156
2	1804	151.81716335146	157
2	1827	153.458303199426	158
2	1827	153.458303199426	159
2	1850	154.680258152724	160
2	1850	154.680258152724	161
2	1873	156.424949736199	162
2	1873	156.424949736199	163
2	1896	157.805741442625	164
2	1896	157.805741442625	165
2	1919	158.802586354403	166
2	1919	158.802586354403	167
2	1944	160.352297413191	168
2	1944	160.352297413191	169
2	1965	161.497247365564	170
2	1965	161.497247365564	171
2	2017	163.788520570642	172
2	2017	163.788520570642	173
2	2033	167.218279321987	174
2	2033	167.218279321987	175
2	2056	168.641624946109	176
2	2056	168.641624946109	177
2	2080	169.992848040777	178
2	2080	169.992848040777	179
2	2104	172.862025470007	180
2	2104	172.862025470007	181
2	2130	175.272097108848	182
2	2130	175.272097108848	183
2	2154	178.727306582564	184
2	2154	178.727306582564	185
2	2179	180.478020313225	186
2	2179	180.478020313225	187
2	2201	182.07908770513	188
2	2201	182.07908770513	189
2	2243	185.820420733821	190
2	2243	185.820420733821	191
2	2276	187.550625253952	192
2	2276	187.550625253952	193
2	2309	190.39446220605	194
2	2309	190.39446220605	195
2	2359	195.184319425894	196
2	2359	195.184319425894	197
2	2378	196.867422776283	198
2	2378	196.867422776283	199
2	2400	199.49129791643	200
2	2400	199.49129791643	201
2	2423	201.211489670226	202
2	2423	201.211489670226	203
2	2444	202.209870576676	204
2	2444	202.209870576676	205
2	2469	203.657597276217	206
2	2469	203.657597276217	207
2	2503	205.094811392099	208
2	2503	205.094811392099	209
2	2526	206.208321422865	210
2	2526	206.208321422865	211
2	2536	208.059894654128	212
2	2536	208.059894654128	213
2	2560	209.819217633776	214
2	2560	209.819217633776	215
2	2582	211.797817963892	216
2	2582	211.797817963892	217
2	2606	212.830827245581	218
2	2606	212.830827245581	219
2	2639	216.667699097001	220
2	2639	216.667699097001	221
2	2653	217.663131843426	222
2	2653	217.663131843426	223
2	2677	219.020575119268	224
2	2677	219.020575119268	225
2	2728	222.487674785696	226
2	2728	222.487674785696	227
2	2751	223.862571397781	228
2	2751	223.862571397781	229
2	2767	225.767945266936	230
2	2767	225.767945266936	231
2	2793	227.741611723106	232
2	2793	227.741611723106	233
2	2812	229.560223720762	234
2	2812	229.560223720762	235
2	2836	232.058456928009	236
2	2836	232.058456928009	237
2	2849	235.173247380117	238
2	2849	235.173247380117	239
2	2872	236.36224915107	240
2	2872	236.36224915107	241
2	2895	237.670063755876	242
2	2895	237.670063755876	243
2	2919	239.277490769226	244
2	2919	239.277490769226	245
3	9	0.161397929952	0
3	9	0.161397929952	1
3	9	0.161397929952	2
3	30	2.917514342596	3
3	30	2.917514342596	4
3	30	2.917514342596	5
3	55	4.06429052844	6
3	55	4.06429052844	7
3	55	4.06429052844	8
3	75	5.499713525671	9
3	75	5.499713525671	10
3	75	5.499713525671	11
3	98	6.898526010877	12
3	98	6.898526010877	13
3	98	6.898526010877	14
3	120	8.756339119327	15
3	120	8.756339119327	16
3	120	8.756339119327	17
3	143	10.264528443682	18
3	143	10.264528443682	19
3	143	10.264528443682	20
3	169	13.938087064867	21
3	169	13.938087064867	22
3	169	13.938087064867	23
3	194	15.707097161047	24
3	194	15.707097161047	25
3	194	15.707097161047	26
3	215	17.528936956247	27
3	215	17.528936956247	28
3	215	17.528936956247	29
3	241	22.826558327042	30
3	241	22.826558327042	31
3	241	22.826558327042	32
3	268	26.587996553273	33
3	268	26.587996553273	34
3	268	26.587996553273	35
3	292	28.453674619623	36
3	292	28.453674619623	37
3	292	28.453674619623	38
3	315	30.201553750878	39
3	315	30.201553750878	40
3	315	30.201553750878	41
3	337	31.704473679571	42
3	337	31.704473679571	43
3	337	31.704473679571	44
3	368	33.545312385839	45
3	368	33.545312385839	46
3	368	33.545312385839	47
3	388	35.329290363408	48
3	388	35.329290363408	49
3	388	35.329290363408	50
3	419	39.688305548665	51
3	419	39.688305548665	52
3	419	39.688305548665	53
3	435	40.858670624075	54
3	435	40.858670624075	55
3	435	40.858670624075	56
3	468	42.715952707452	57
3	468	42.715952707452	58
3	468	42.715952707452	59
3	481	46.013506323224	60
3	481	46.013506323224	61
3	481	46.013506323224	62
3	504	47.306583167486	63
3	504	47.306583167486	64
3	504	47.306583167486	65
3	529	50.81742993011	66
3	529	50.81742993011	67
3	529	50.81742993011	68
3	554	53.465382668214	69
3	554	53.465382668214	70
3	554	53.465382668214	71
3	577	55.135149493035	72
3	577	55.135149493035	73
3	577	55.135149493035	74
3	609	56.400527903841	75
3	609	56.400527903841	76
3	609	56.400527903841	77
3	626	59.62012019434	78
3	626	59.62012019434	79
3	626	59.62012019434	80
3	650	61.182588396586	81
3	650	61.182588396586	82
3	650	61.182588396586	83
3	671	62.754099021142	84
3	671	62.754099021142	85
3	671	62.754099021142	86
3	696	66.473376127065	87
3	696	66.473376127065	88
3	696	66.473376127065	89
3	727	67.92940875247	90
3	727	67.92940875247	91
3	727	67.92940875247	92
3	752	71.11426385664	93
3	752	71.11426385664	94
3	752	71.11426385664	95
3	782	73.125837538221	96
3	782	73.125837538221	97
3	782	73.125837538221	98
3	805	74.421039645394	99
3	805	74.421039645394	100
3	805	74.421039645394	101
3	821	76.336101237827	102
3	821	76.336101237827	103
3	821	76.336101237827	104
3	852	77.731073377266	105
3	852	77.731073377266	106
3	852	77.731073377266	107
3	865	79.389567661724	108
3	865	79.389567661724	109
3	865	79.389567661724	110
3	894	80.513869142909	111
3	894	80.513869142909	112
3	894	80.513869142909	113
3	910	81.97507320432	114
3	910	81.97507320432	115
3	910	81.97507320432	116
3	940	83.412179671074	117
3	940	83.412179671074	118
3	940	83.412179671074	119
3	963	85.218307437493	120
3	963	85.218307437493	121
3	963	85.218307437493	122
3	979	87.035898293467	123
3	979	87.035898293467	124
3	979	87.035898293467	125
3	1009	88.501962845785	126
3	1009	88.501962845785	127
3	1009	88.501962845785	128
3	1032	90.159136825767	129
3	1032	90.159136825767	130
3	1032	90.159136825767	131
3	1048	91.248006937335	132
3	1048	91.248006937335	133
3	1048	91.248006937335	134
3	1067	92.358032117788	135
3	1067	92.358032117788	136
3	1067	92.358032117788	137
3	1091	93.649669066159	138
3	1091	93.649669066159	139
3	1091	93.649669066159	140
3	1121	94.975575743466	141
3	1121	94.975575743466	142
3	1121	94.975575743466	143
3	1138	97.984354912438	144
3	1138	97.984354912438	145
3	1138	97.984354912438	146
3	1159	99.676228402286	147
3	1159	99.676228402286	148
3	1159	99.676228402286	149
3	1180	101.484153265067	150
3	1180	101.484153265067	151
3	1180	101.484153265067	152
3	1203	102.734497370888	153
3	1203	102.734497370888	154
3	1203	102.734497370888	155
3	1228	104.296744729606	156
3	1228	104.296744729606	157
3	1228	104.296744729606	158
3	1249	106.228625653186	159
3	1249	106.228625653186	160
3	1249	106.228625653186	161
3	1272	107.303594859857	162
3	1272	107.303594859857	163
3	1272	107.303594859857	164
3	1296	110.408763156911	165
3	1296	110.408763156911	166
3	1296	110.408763156911	167
3	1327	111.445916637112	168
3	1327	111.445916637112	169
3	1327	111.445916637112	170
3	1350	113.195338371783	171
3	1350	113.195338371783	172
3	1350	113.195338371783	173
3	1373	115.049040523087	174
3	1373	115.049040523087	175
3	1373	115.049040523087	176
3	1389	116.682618754009	177
3	1389	116.682618754009	178
3	1389	116.682618754009	179
3	1432	119.664375935364	180
3	1432	119.664375935364	181
3	1432	119.664375935364	182
3	1452	122.865826982386	183
3	1452	122.865826982386	184
3	1452	122.865826982386	185
3	1478	124.439464597404	186
3	1478	124.439464597404	187
3	1478	124.439464597404	188
3	1498	125.691730458371	189
3	1498	125.691730458371	190
3	1498	125.691730458371	191
3	1520	127.397626454894	192
3	1520	127.397626454894	193
3	1520	127.397626454894	194
3	1545	130.06343019905	195
3	1545	130.06343019905	196
3	1545	130.06343019905	197
3	1570	133.81248434211	198
3	1570	133.81248434211	199
3	1570	133.81248434211	200
3	1593	135.593028881296	201
3	1593	135.593028881296	202
3	1593	135.593028881296	203
3	1616	136.928287263681	204
3	1616	136.928287263681	205
3	1616	136.928287263681	206
3	1640	138.124210085541	207
3	1640	138.124210085541	208
3	1640	138.124210085541	209
3	1662	139.411523617076	210
3	1662	139.411523617076	211
3	1662	139.411523617076	212
3	1695	142.507966623153	213
3	1695	142.507966623153	214
3	1695	142.507966623153	215
3	1713	145.655862520203	216
3	1713	145.655862520203	217
3	1713	145.655862520203	218
3	1736	147.011549369693	219
3	1736	147.011549369693	220
3	1736	147.011549369693	221
3	1759	148.463025822718	222
3	1759	148.463025822718	223
3	1759	148.463025822718	224
3	1786	149.945957635298	225
3	1786	149.945957635298	226
3	1786	149.945957635298	227
3	1807	151.827657061825	228
3	1807	151.827657061825	229
3	1807	151.827657061825	230
3	1828	153.467185477368	231
3	1828	153.467185477368	232
3	1828	153.467185477368	233
3	1862	154.719513303778	234
3	1862	154.719513303778	235
3	1862	154.719513303778	236
3	1885	156.469501140516	237
3	1885	156.469501140516	238
3	1885	156.469501140516	239
3	1899	157.819229699268	240
3	1899	157.819229699268	241
3	1899	157.819229699268	242
3	1920	158.806219891176	243
3	1920	158.806219891176	244
3	1920	158.806219891176	245
3	1942	160.343671359885	246
3	1942	160.343671359885	247
3	1942	160.343671359885	248
3	1967	161.503132366126	249
3	1967	161.503132366126	250
3	1967	161.503132366126	251
3	1988	162.5595476967	252
3	1988	162.5595476967	253
3	1988	162.5595476967	254
3	2009	163.776060710978	255
3	2009	163.776060710978	256
3	2009	163.776060710978	257
3	2034	167.220421687792	258
3	2034	167.220421687792	259
3	2034	167.220421687792	260
3	2060	168.655636166588	261
3	2060	168.655636166588	262
3	2060	168.655636166588	263
3	2087	170.011745106125	264
3	2087	170.011745106125	265
3	2087	170.011745106125	266
3	2112	172.872968478516	267
3	2112	172.872968478516	268
3	2112	172.872968478516	269
3	2129	175.271292320958	270
3	2129	175.271292320958	271
3	2129	175.271292320958	272
3	2155	178.732767573953	273
3	2155	178.732767573953	274
3	2155	178.732767573953	275
3	2177	180.471448998089	276
3	2177	180.471448998089	277
3	2177	180.471448998089	278
3	2209	182.0986576604	279
3	2209	182.0986576604	280
3	2209	182.0986576604	281
3	2224	183.874265059636	282
3	2224	183.874265059636	283
3	2224	183.874265059636	284
3	2244	185.827005595967	285
3	2244	185.827005595967	286
3	2244	185.827005595967	287
3	2266	187.526242027604	288
3	2266	187.526242027604	289
3	2266	187.526242027604	290
3	2298	189.247277835811	291
3	2298	189.247277835811	292
3	2298	189.247277835811	293
3	2313	190.40780026855	294
3	2313	190.40780026855	295
3	2313	190.40780026855	296
3	2332	191.693033645073	297
3	2332	191.693033645073	298
3	2332	191.693033645073	299
3	2351	195.168089895978	300
3	2351	195.168089895978	301
3	2351	195.168089895978	302
3	2373	196.850177557616	303
3	2373	196.850177557616	304
3	2373	196.850177557616	305
3	2398	199.481829401627	306
3	2398	199.481829401627	307
3	2398	199.481829401627	308
3	2421	201.204320383245	309
3	2421	201.204320383245	310
3	2421	201.204320383245	311
3	2448	202.244900901738	312
3	2448	202.244900901738	313
3	2448	202.244900901738	314
3	2467	203.649660663489	315
3	2467	203.649660663489	316
3	2467	203.649660663489	317
3	2496	205.081711854379	318
3	2496	205.081711854379	319
3	2496	205.081711854379	320
3	2514	206.184697336576	321
3	2514	206.184697336576	322
3	2514	206.184697336576	323
3	2537	208.065211562199	324
3	2537	208.065211562199	325
3	2537	208.065211562199	326
3	2571	209.844043268622	327
3	2571	209.844043268622	328
3	2571	209.844043268622	329
3	2590	211.825662671914	330
3	2590	211.825662671914	331
3	2590	211.825662671914	332
3	2605	212.830822577054	333
3	2605	212.830822577054	334
3	2605	212.830822577054	335
3	2630	216.646459487478	336
3	2630	216.646459487478	337
3	2630	216.646459487478	338
3	2662	217.686226723084	339
3	2662	217.686226723084	340
3	2662	217.686226723084	341
3	2682	219.029032900176	342
3	2682	219.029032900176	343
3	2682	219.029032900176	344
3	2700	220.652451270129	345
3	2700	220.652451270129	346
3	2700	220.652451270129	347
3	2720	222.4705355906	348
3	2720	222.4705355906	349
3	2720	222.4705355906	350
3	2742	223.848224039049	351
3	2742	223.848224039049	352
3	2742	223.848224039049	353
3	2765	225.765199225135	354
3	2765	225.765199225135	355
3	2765	225.765199225135	356
3	2794	227.750536097558	357
3	2794	227.750536097558	358
3	2794	227.750536097558	359
3	2811	229.553780070396	360
3	2811	229.553780070396	361
3	2811	229.553780070396	362
3	2848	235.165828222706	363
3	2848	235.165828222706	364
3	2848	235.165828222706	365
3	2873	236.36546233877	366
3	2873	236.36546233877	367
3	2873	236.36546233877	368
3	2906	237.701311440306	369
3	2906	237.701311440306	370
3	2906	237.701311440306	371
3	2917	239.27571663277	372
3	2917	239.27571663277	373
3	2917	239.27571663277	374
4	15	0.174246634263	0
4	15	0.174246634263	1
4	15	0.174246634263	2
4	40	2.927684203099	3
4	40	2.927684203099	4
4	40	2.927684203099	5
4	60	4.071659252888	6
4	60	4.071659252888	7
4	60	4.071659252888	8
4	86	5.516042332991	9
4	86	5.516042332991	10
4	86	5.516042332991	11
4	109	6.926917110647	12
4	109	6.926917110647	13
4	109	6.926917110647	14
4	132	8.774844005645	15
4	132	8.774844005645	16
4	132	8.774844005645	17
4	149	10.276847337224	18
4	149	10.276847337224	19
4	149	10.276847337224	20
4	180	13.974222516229	21
4	180	13.974222516229	22
4	180	13.974222516229	23
4	203	15.737307696937	24
4	203	15.737307696937	25
4	203	15.737307696937	26
4	223	17.539804101926	27
4	223	17.539804101926	28
4	223	17.539804101926	29
4	248	22.854591364159	30
4	248	22.854591364159	31
4	248	22.854591364159	32
4	280	26.6205889677	33
4	280	26.6205889677	34
4	280	26.6205889677	35
4	300	28.464326556792	36
4	300	28.464326556792	37
4	300	28.464326556792	38
4	326	30.24514322179	39
4	326	30.24514322179	40
4	326	30.24514322179	41
4	342	31.72369904481	42
4	342	31.72369904481	43
4	342	31.72369904481	44
4	372	33.567454416196	45
4	372	33.567454416196	46
4	372	33.567454416196	47
4	392	35.346182125021	48
4	392	35.346182125021	49
4	392	35.346182125021	50
4	418	39.685720735457	51
4	418	39.685720735457	52
4	418	39.685720735457	53
4	445	40.869584114505	54
4	445	40.869584114505	55
4	445	40.869584114505	56
4	464	42.69165479383	57
4	464	42.69165479383	58
4	464	42.69165479383	59
4	489	46.032275343087	60
4	489	46.032275343087	61
4	489	46.032275343087	62
4	516	47.336036920599	63
4	516	47.336036920599	64
4	516	47.336036920599	65
4	541	50.847947380297	66
4	541	50.847947380297	67
4	541	50.847947380297	68
4	563	53.499961083253	69
4	563	53.499961083253	70
4	563	53.499961083253	71
4	584	55.154125997535	72
4	584	55.154125997535	73
4	584	55.154125997535	74
4	608	56.396128464902	75
4	608	56.396128464902	76
4	608	56.396128464902	77
4	632	59.632473702411	78
4	632	59.632473702411	79
4	632	59.632473702411	80
4	657	61.187117456918	81
4	657	61.187117456918	82
4	657	61.187117456918	83
4	681	62.77261860472	84
4	681	62.77261860472	85
4	681	62.77261860472	86
4	701	66.484662134971	87
4	701	66.484662134971	88
4	701	66.484662134971	89
4	731	67.945970421878	90
4	731	67.945970421878	91
4	731	67.945970421878	92
4	760	71.129177750638	93
4	760	71.129177750638	94
4	760	71.129177750638	95
4	781	73.125193813766	96
4	781	73.125193813766	97
4	781	73.125193813766	98
4	804	74.419016183323	99
4	804	74.419016183323	100
4	804	74.419016183323	101
4	827	76.347039867181	102
4	827	76.347039867181	103
4	827	76.347039867181	104
4	875	79.407512196483	105
4	875	79.407512196483	106
4	875	79.407512196483	107
4	898	80.537109063194	108
4	898	80.537109063194	109
4	898	80.537109063194	110
4	916	81.995472293884	111
4	916	81.995472293884	112
4	916	81.995472293884	113
4	941	83.415379195855	114
4	941	83.415379195855	115
4	941	83.415379195855	116
4	964	85.22040520448	117
4	964	85.22040520448	118
4	964	85.22040520448	119
4	987	87.047188002782	120
4	987	87.047188002782	121
4	987	87.047188002782	122
4	1010	88.505730563593	123
4	1010	88.505730563593	124
4	1010	88.505730563593	125
4	1036	90.169825718694	126
4	1036	90.169825718694	127
4	1036	90.169825718694	128
4	1078	92.4046432303	129
4	1078	92.4046432303	130
4	1078	92.4046432303	131
4	1101	93.668936252335	132
4	1101	93.668936252335	133
4	1101	93.668936252335	134
4	1120	94.967452000149	135
4	1120	94.967452000149	136
4	1120	94.967452000149	137
4	1164	99.686241636353	138
4	1164	99.686241636353	139
4	1164	99.686241636353	140
4	1189	101.498043250335	141
4	1189	101.498043250335	142
4	1189	101.498043250335	143
4	1214	102.760159299373	144
4	1214	102.760159299373	145
4	1214	102.760159299373	146
4	1232	104.307452048382	147
4	1232	104.307452048382	148
4	1232	104.307452048382	149
4	1260	106.268241890669	150
4	1260	106.268241890669	151
4	1260	106.268241890669	152
4	1280	107.317309243438	153
4	1280	107.317309243438	154
4	1280	107.317309243438	155
4	1308	110.459868649777	156
4	1308	110.459868649777	157
4	1308	110.459868649777	158
4	1331	111.488343994757	159
4	1331	111.488343994757	160
4	1331	111.488343994757	161
4	1351	113.198551645673	162
4	1351	113.198551645673	163
4	1351	113.198551645673	164
4	1374	115.052907644656	165
4	1374	115.052907644656	166
4	1374	115.052907644656	167
4	1400	116.69959479491	168
4	1400	116.69959479491	169
4	1400	116.69959479491	170
4	1431	119.663538642831	171
4	1431	119.663538642831	172
4	1431	119.663538642831	173
4	1458	122.877357542573	174
4	1458	122.877357542573	175
4	1458	122.877357542573	176
4	1486	124.45654742162	177
4	1486	124.45654742162	178
4	1486	124.45654742162	179
4	1504	125.701058336672	180
4	1504	125.701058336672	181
4	1504	125.701058336672	182
4	1525	127.410875674504	183
4	1525	127.410875674504	184
4	1525	127.410875674504	185
4	1551	130.074640887444	186
4	1551	130.074640887444	187
4	1551	130.074640887444	188
4	1582	133.839330045016	189
4	1582	133.839330045016	190
4	1582	133.839330045016	191
4	1598	135.605079186103	192
4	1598	135.605079186103	193
4	1598	135.605079186103	194
4	1626	136.949230132517	195
4	1626	136.949230132517	196
4	1626	136.949230132517	197
4	1651	138.161233338775	198
4	1651	138.161233338775	199
4	1651	138.161233338775	200
4	1671	139.434052696848	201
4	1671	139.434052696848	202
4	1671	139.434052696848	203
4	1699	142.527122846098	204
4	1699	142.527122846098	205
4	1699	142.527122846098	206
4	1719	145.66596074965	207
4	1719	145.66596074965	208
4	1719	145.66596074965	209
4	1741	147.020444519528	210
4	1741	147.020444519528	211
4	1741	147.020444519528	212
4	1767	148.478226995329	213
4	1767	148.478226995329	214
4	1767	148.478226995329	215
4	1793	149.961290021249	216
4	1793	149.961290021249	217
4	1793	149.961290021249	218
4	1816	151.902707527643	219
4	1816	151.902707527643	220
4	1816	151.902707527643	221
4	1834	153.478830970771	222
4	1834	153.478830970771	223
4	1834	153.478830970771	224
4	1858	154.704249207655	225
4	1858	154.704249207655	226
4	1858	154.704249207655	227
4	1881	156.445731894136	228
4	1881	156.445731894136	229
4	1881	156.445731894136	230
4	1908	157.840825090828	231
4	1908	157.840825090828	232
4	1908	157.840825090828	233
4	1931	158.847994319579	234
4	1931	158.847994319579	235
4	1931	158.847994319579	236
4	1948	160.355803731017	237
4	1948	160.355803731017	238
4	1948	160.355803731017	239
4	1974	161.512374380634	240
4	1974	161.512374380634	241
4	1974	161.512374380634	242
4	1992	162.572460189328	243
4	1992	162.572460189328	244
4	1992	162.572460189328	245
4	2020	163.811547259937	246
4	2020	163.811547259937	247
4	2020	163.811547259937	248
4	2041	167.243786790645	249
4	2041	167.243786790645	250
4	2041	167.243786790645	251
4	2068	168.686961572708	252
4	2068	168.686961572708	253
4	2068	168.686961572708	254
4	2091	170.027495657208	255
4	2091	170.027495657208	256
4	2091	170.027495657208	257
4	2113	172.873834163747	258
4	2113	172.873834163747	259
4	2113	172.873834163747	260
4	2137	175.282833932791	261
4	2137	175.282833932791	262
4	2137	175.282833932791	263
4	2162	178.745828274274	264
4	2162	178.745828274274	265
4	2162	178.745828274274	266
4	2189	180.505383614171	267
4	2189	180.505383614171	268
4	2189	180.505383614171	269
4	2208	182.095283775407	270
4	2208	182.095283775407	271
4	2208	182.095283775407	272
4	2229	183.876944067774	273
4	2229	183.876944067774	274
4	2229	183.876944067774	275
4	2250	185.84950464784	276
4	2250	185.84950464784	277
4	2250	185.84950464784	278
4	2271	187.54162489335	279
4	2271	187.54162489335	280
4	2271	187.54162489335	281
4	2294	189.235775413705	282
4	2294	189.235775413705	283
4	2294	189.235775413705	284
4	2321	190.420805619025	285
4	2321	190.420805619025	286
4	2321	190.420805619025	287
4	2362	195.222216427846	288
4	2362	195.222216427846	289
4	2362	195.222216427846	290
4	2385	196.886421676122	291
4	2385	196.886421676122	292
4	2385	196.886421676122	293
4	2404	199.496078347519	294
4	2404	199.496078347519	295
4	2404	199.496078347519	296
4	2427	201.218134527755	297
4	2427	201.218134527755	298
4	2427	201.218134527755	299
4	2456	202.296281795552	300
4	2456	202.296281795552	301
4	2456	202.296281795552	302
4	2473	203.659978968712	303
4	2473	203.659978968712	304
4	2473	203.659978968712	305
4	2495	205.081238250664	306
4	2495	205.081238250664	307
4	2495	205.081238250664	308
4	2519	206.193976763965	309
4	2519	206.193976763965	310
4	2519	206.193976763965	311
4	2548	208.122128003894	312
4	2548	208.122128003894	313
4	2548	208.122128003894	314
4	2567	209.831146849227	315
4	2567	209.831146849227	316
4	2567	209.831146849227	317
4	2591	211.828282169502	318
4	2591	211.828282169502	319
4	2591	211.828282169502	320
4	2617	212.89811312042	321
4	2617	212.89811312042	322
4	2617	212.89811312042	323
4	2640	216.676204020894	324
4	2640	216.676204020894	325
4	2640	216.676204020894	326
4	2661	217.684724282115	327
4	2661	217.684724282115	328
4	2661	217.684724282115	329
4	2685	219.030741571921	330
4	2685	219.030741571921	331
4	2685	219.030741571921	332
4	2708	220.665406378458	333
4	2708	220.665406378458	334
4	2708	220.665406378458	335
4	2729	222.489281343715	336
4	2729	222.489281343715	337
4	2729	222.489281343715	338
4	2752	223.86626025684	339
4	2752	223.86626025684	340
4	2752	223.86626025684	341
4	2777	225.780260639512	342
4	2777	225.780260639512	343
4	2777	225.780260639512	344
4	2800	227.7653495915	345
4	2800	227.7653495915	346
4	2800	227.7653495915	347
4	2823	229.575874669547	348
4	2823	229.575874669547	349
4	2823	229.575874669547	350
4	2853	235.183192800836	351
4	2853	235.183192800836	352
4	2853	235.183192800836	353
4	2878	236.367714080884	354
4	2878	236.367714080884	355
4	2878	236.367714080884	356
4	2900	237.676811440435	357
4	2900	237.676811440435	358
4	2900	237.676811440435	359
4	2929	239.290713308034	360
4	2929	239.290713308034	361
4	2929	239.290713308034	362
5	18	0.184246634263	0
5	43	2.937684203099	1
5	66	4.081659252888	2
5	89	5.526042332991	3
5	112	6.936917110647	4
5	135	8.784844005645	5
5	183	13.984222516229	6
5	206	15.747307696937	7
5	227	17.549804101926	8
5	252	22.864591364159	9
5	283	26.6305889677	10
5	304	28.474326556792	11
5	329	30.25514322179	12
5	348	31.73369904481	13
5	375	33.577454416196	14
5	396	35.356182125021	15
5	448	40.879584114505	16
5	467	42.70165479383	17
5	496	46.042275343087	18
5	519	47.346036920599	19
5	544	50.857947380297	20
5	567	53.509961083253	21
5	612	56.406128464902	22
5	635	59.642473702411	23
5	686	62.78261860472	24
5	734	67.955970421878	25
5	787	73.135193813766	26
5	810	74.429016183323	27
5	878	79.417512196483	28
5	947	83.425379195855	29
5	991	87.057188002782	30
5	1039	90.179825718694	31
5	1104	93.678936252335	32
5	1124	94.977452000149	33
5	1171	99.696241636353	34
5	1194	101.508043250335	35
5	1217	102.770159299373	36
5	1236	104.317452048382	37
5	1263	106.278241890669	38
5	1334	111.498343994757	39
5	1357	113.208551645673	40
5	1380	115.062907644656	41
5	1403	116.70959479491	42
5	1436	119.673538642831	43
5	1532	127.420875674504	44
5	1560	130.084640887444	45
5	1604	135.615079186103	46
5	1631	136.959230132517	47
5	1654	138.171233338775	48
5	1675	139.444052696848	49
5	1702	142.537122846098	50
5	1722	145.67596074965	51
5	1770	148.488226995329	52
5	1796	149.971290021249	53
5	1838	153.488830970771	54
5	1861	154.714249207655	55
5	1911	157.850825090828	56
5	1934	158.857994319579	57
5	1980	161.522374380634	58
5	2023	163.821547259937	59
5	2048	167.253786790645	60
5	2071	168.696961572708	61
5	2094	170.037495657208	62
5	2119	172.883834163747	63
5	2144	175.292833932791	64
5	2192	180.515383614171	65
5	2212	182.105283775407	66
5	2253	185.85950464784	67
5	2279	187.55162489335	68
5	2388	196.896421676122	69
5	2413	199.506078347519	70
5	2436	201.228134527755	71
5	2459	202.306281795552	72
5	2482	203.669978968712	73
5	2499	205.091238250664	74
5	2551	208.132128003894	75
5	2597	211.838282169502	76
5	2620	212.90811312042	77
5	2691	219.040741571921	78
5	2711	220.675406378458	79
5	2757	223.87626025684	80
5	2780	225.790260639512	81
5	2803	227.7753495915	82
5	2858	235.193192800836	83
5	2886	236.377714080884	84
5	2905	237.686811440435	85
5	2932	239.300713308034	86
6	28	2.909500407243	0
6	28	2.909500407243	1
6	28	2.909500407243	2
6	28	2.909500407243	3
6	54	4.061450953419	4
6	54	4.061450953419	5
6	54	4.061450953419	6
6	54	4.061450953419	7
6	76	5.502148827138	8
6	76	5.502148827138	9
6	76	5.502148827138	10
6	76	5.502148827138	11
6	104	6.910512109642	12
6	104	6.910512109642	13
6	104	6.910512109642	14
6	104	6.910512109642	15
6	122	8.763346882613	16
6	122	8.763346882613	17
6	122	8.763346882613	18
6	122	8.763346882613	19
6	144	10.270851144546	20
6	144	10.270851144546	21
6	144	10.270851144546	22
6	144	10.270851144546	23
6	175	13.953412527573	24
6	175	13.953412527573	25
6	175	13.953412527573	26
6	175	13.953412527573	27
6	195	15.714373475447	28
6	195	15.714373475447	29
6	195	15.714373475447	30
6	195	15.714373475447	31
6	214	17.523166388395	32
6	214	17.523166388395	33
6	214	17.523166388395	34
6	214	17.523166388395	35
6	249	22.859360403429	36
6	249	22.859360403429	37
6	249	22.859360403429	38
6	249	22.859360403429	39
6	275	26.6043013143	40
6	275	26.6043013143	41
6	275	26.6043013143	42
6	275	26.6043013143	43
6	291	28.449119497656	44
6	291	28.449119497656	45
6	291	28.449119497656	46
6	291	28.449119497656	47
6	321	30.232592010221	48
6	321	30.232592010221	49
6	321	30.232592010221	50
6	321	30.232592010221	51
6	343	31.727187484592	52
6	343	31.727187484592	53
6	343	31.727187484592	54
6	343	31.727187484592	55
6	360	33.522577326417	56
6	360	33.522577326417	57
6	360	33.522577326417	58
6	360	33.522577326417	59
6	383	35.318521144801	60
6	383	35.318521144801	61
6	383	35.318521144801	62
6	383	35.318521144801	63
6	413	39.672248473729	64
6	413	39.672248473729	65
6	413	39.672248473729	66
6	413	39.672248473729	67
6	434	40.856343863432	68
6	434	40.856343863432	69
6	434	40.856343863432	70
6	434	40.856343863432	71
6	456	42.666659624174	72
6	456	42.666659624174	73
6	456	42.666659624174	74
6	456	42.666659624174	75
6	488	46.027912050701	76
6	488	46.027912050701	77
6	488	46.027912050701	78
6	488	46.027912050701	79
6	509	47.322851015769	80
6	509	47.322851015769	81
6	509	47.322851015769	82
6	509	47.322851015769	83
6	530	50.823342104906	84
6	530	50.823342104906	85
6	530	50.823342104906	86
6	530	50.823342104906	87
6	555	53.47219167307	88
6	555	53.47219167307	89
6	555	53.47219167307	90
6	555	53.47219167307	91
6	588	55.170716656605	92
6	588	55.170716656605	93
6	588	55.170716656605	94
6	588	55.170716656605	95
6	603	56.375611879034	96
6	603	56.375611879034	97
6	603	56.375611879034	98
6	603	56.375611879034	99
6	636	59.644915296727	100
6	636	59.644915296727	101
6	636	59.644915296727	102
6	636	59.644915296727	103
6	648	61.173964978165	104
6	648	61.173964978165	105
6	648	61.173964978165	106
6	648	61.173964978165	107
6	672	62.755723061892	108
6	672	62.755723061892	109
6	672	62.755723061892	110
6	672	62.755723061892	111
6	700	66.483801190767	112
6	700	66.483801190767	113
6	700	66.483801190767	114
6	700	66.483801190767	115
6	719	67.876255648342	116
6	719	67.876255648342	117
6	719	67.876255648342	118
6	719	67.876255648342	119
6	754	71.122781845795	120
6	754	71.122781845795	121
6	754	71.122781845795	122
6	754	71.122781845795	123
6	775	73.113497792665	124
6	775	73.113497792665	125
6	775	73.113497792665	126
6	775	73.113497792665	127
6	798	74.408086463024	128
6	798	74.408086463024	129
6	798	74.408086463024	130
6	798	74.408086463024	131
6	822	76.339143803921	132
6	822	76.339143803921	133
6	822	76.339143803921	134
6	822	76.339143803921	135
6	844	77.710054818858	136
6	844	77.710054818858	137
6	844	77.710054818858	138
6	844	77.710054818858	139
6	863	79.389383874303	140
6	863	79.389383874303	141
6	863	79.389383874303	142
6	863	79.389383874303	143
6	887	80.487493529171	144
6	887	80.487493529171	145
6	887	80.487493529171	146
6	887	80.487493529171	147
6	917	81.996518463517	148
6	917	81.996518463517	149
6	917	81.996518463517	150
6	917	81.996518463517	151
6	935	83.396169158838	152
6	935	83.396169158838	153
6	935	83.396169158838	154
6	935	83.396169158838	155
6	955	85.197134692728	156
6	955	85.197134692728	157
6	955	85.197134692728	158
6	955	85.197134692728	159
6	978	87.030506078036	160
6	978	87.030506078036	161
6	978	87.030506078036	162
6	978	87.030506078036	163
6	1001	88.48777418302	164
6	1001	88.48777418302	165
6	1001	88.48777418302	166
6	1001	88.48777418302	167
6	1025	90.147445841109	168
6	1025	90.147445841109	169
6	1025	90.147445841109	170
6	1025	90.147445841109	171
6	1054	91.275922914871	172
6	1054	91.275922914871	173
6	1054	91.275922914871	174
6	1054	91.275922914871	175
6	1068	92.360920257146	176
6	1068	92.360920257146	177
6	1068	92.360920257146	178
6	1068	92.360920257146	179
6	1089	93.642061851762	180
6	1089	93.642061851762	181
6	1089	93.642061851762	182
6	1089	93.642061851762	183
6	1112	94.946346413766	184
6	1112	94.946346413766	185
6	1112	94.946346413766	186
6	1112	94.946346413766	187
6	1144	97.995454124568	188
6	1144	97.995454124568	189
6	1144	97.995454124568	190
6	1144	97.995454124568	191
6	1160	99.680900564273	192
6	1160	99.680900564273	193
6	1160	99.680900564273	194
6	1160	99.680900564273	195
6	1179	101.482297939324	196
6	1179	101.482297939324	197
6	1179	101.482297939324	198
6	1179	101.482297939324	199
6	1206	102.738545470973	200
6	1206	102.738545470973	201
6	1206	102.738545470973	202
6	1206	102.738545470973	203
6	1233	104.307949329563	204
6	1233	104.307949329563	205
6	1233	104.307949329563	206
6	1233	104.307949329563	207
6	1255	106.248508199857	208
6	1255	106.248508199857	209
6	1255	106.248508199857	210
6	1255	106.248508199857	211
6	1271	107.302756038302	212
6	1271	107.302756038302	213
6	1271	107.302756038302	214
6	1271	107.302756038302	215
6	1303	110.435916685123	216
6	1303	110.435916685123	217
6	1303	110.435916685123	218
6	1303	110.435916685123	219
6	1319	111.435871350996	220
6	1319	111.435871350996	221
6	1319	111.435871350996	222
6	1319	111.435871350996	223
6	1342	113.180294105987	224
6	1342	113.180294105987	225
6	1342	113.180294105987	226
6	1342	113.180294105987	227
6	1368	115.038143143596	228
6	1368	115.038143143596	229
6	1368	115.038143143596	230
6	1368	115.038143143596	231
6	1388	116.6778743095	232
6	1388	116.6778743095	233
6	1388	116.6778743095	234
6	1388	116.6778743095	235
6	1411	117.983183327892	236
6	1411	117.983183327892	237
6	1411	117.983183327892	238
6	1411	117.983183327892	239
6	1426	119.631560032216	240
6	1426	119.631560032216	241
6	1426	119.631560032216	242
6	1426	119.631560032216	243
6	1462	122.888563158017	244
6	1462	122.888563158017	245
6	1462	122.888563158017	246
6	1462	122.888563158017	247
6	1475	124.430371110605	248
6	1475	124.430371110605	249
6	1475	124.430371110605	250
6	1475	124.430371110605	251
6	1497	125.686772209121	252
6	1497	125.686772209121	253
6	1497	125.686772209121	254
6	1497	125.686772209121	255
6	1521	127.40492696017	256
6	1521	127.40492696017	257
6	1521	127.40492696017	258
6	1521	127.40492696017	259
6	1546	130.070262501879	260
6	1546	130.070262501879	261
6	1546	130.070262501879	262
6	1546	130.070262501879	263
6	1574	133.822664932424	264
6	1574	133.822664932424	265
6	1574	133.822664932424	266
6	1574	133.822664932424	267
6	1599	135.605644040297	268
6	1599	135.605644040297	269
6	1599	135.605644040297	270
6	1599	135.605644040297	271
6	1617	136.932227073576	272
6	1617	136.932227073576	273
6	1617	136.932227073576	274
6	1617	136.932227073576	275
6	1641	138.132512174752	276
6	1641	138.132512174752	277
6	1641	138.132512174752	278
6	1641	138.132512174752	279
6	1666	139.423165049219	280
6	1666	139.423165049219	281
6	1666	139.423165049219	282
6	1666	139.423165049219	283
6	1687	142.493416835463	284
6	1687	142.493416835463	285
6	1687	142.493416835463	286
6	1687	142.493416835463	287
6	1723	145.69787080004	288
6	1723	145.69787080004	289
6	1723	145.69787080004	290
6	1723	145.69787080004	291
6	1735	147.008108443807	292
6	1735	147.008108443807	293
6	1735	147.008108443807	294
6	1735	147.008108443807	295
6	1758	148.461691187548	296
6	1758	148.461691187548	297
6	1758	148.461691187548	298
6	1758	148.461691187548	299
6	1781	149.934436997764	300
6	1781	149.934436997764	301
6	1781	149.934436997764	302
6	1781	149.934436997764	303
6	1811	151.890394144588	304
6	1811	151.890394144588	305
6	1811	151.890394144588	306
6	1811	151.890394144588	307
6	1835	153.479018143784	308
6	1835	153.479018143784	309
6	1835	153.479018143784	310
6	1835	153.479018143784	311
6	1851	154.688131576479	312
6	1851	154.688131576479	313
6	1851	154.688131576479	314
6	1851	154.688131576479	315
6	1874	156.425033339965	316
6	1874	156.425033339965	317
6	1874	156.425033339965	318
6	1874	156.425033339965	319
6	1900	157.821368879941	320
6	1900	157.821368879941	321
6	1900	157.821368879941	322
6	1900	157.821368879941	323
6	1926	158.828740328743	324
6	1926	158.828740328743	325
6	1926	158.828740328743	326
6	1926	158.828740328743	327
6	1943	160.347464534411	328
6	1943	160.347464534411	329
6	1943	160.347464534411	330
6	1943	160.347464534411	331
6	1966	161.497825167017	332
6	1966	161.497825167017	333
6	1966	161.497825167017	334
6	1966	161.497825167017	335
6	1993	162.578138027175	336
6	1993	162.578138027175	337
6	1993	162.578138027175	338
6	1993	162.578138027175	339
6	2008	163.773741852078	340
6	2008	163.773741852078	341
6	2008	163.773741852078	342
6	2008	163.773741852078	343
6	2040	167.235438745232	344
6	2040	167.235438745232	345
6	2040	167.235438745232	346
6	2040	167.235438745232	347
6	2057	168.647195340733	348
6	2057	168.647195340733	349
6	2057	168.647195340733	350
6	2057	168.647195340733	351
6	2079	169.988439295041	352
6	2079	169.988439295041	353
6	2079	169.988439295041	354
6	2079	169.988439295041	355
6	2105	172.862384155572	356
6	2105	172.862384155572	357
6	2105	172.862384155572	358
6	2105	172.862384155572	359
6	2131	175.273202723856	360
6	2131	175.273202723856	361
6	2131	175.273202723856	362
6	2131	175.273202723856	363
6	2156	178.736614459737	364
6	2156	178.736614459737	365
6	2156	178.736614459737	366
6	2156	178.736614459737	367
6	2178	180.47280226466	368
6	2178	180.47280226466	369
6	2178	180.47280226466	370
6	2178	180.47280226466	371
6	2200	182.077662190521	372
6	2200	182.077662190521	373
6	2200	182.077662190521	374
6	2200	182.077662190521	375
6	2223	183.865617547732	376
6	2223	183.865617547732	377
6	2223	183.865617547732	378
6	2223	183.865617547732	379
6	2254	185.867748116985	380
6	2254	185.867748116985	381
6	2254	185.867748116985	382
6	2254	185.867748116985	383
6	2270	187.538206750801	384
6	2270	187.538206750801	385
6	2270	187.538206750801	386
6	2270	187.538206750801	387
6	2289	189.224302525251	388
6	2289	189.224302525251	389
6	2289	189.224302525251	390
6	2289	189.224302525251	391
6	2312	190.405059790579	392
6	2312	190.405059790579	393
6	2312	190.405059790579	394
6	2312	190.405059790579	395
6	2336	191.711187959757	396
6	2336	191.711187959757	397
6	2336	191.711187959757	398
6	2336	191.711187959757	399
6	2350	195.167606739261	400
6	2350	195.167606739261	401
6	2350	195.167606739261	402
6	2350	195.167606739261	403
6	2377	196.862118620927	404
6	2377	196.862118620927	405
6	2377	196.862118620927	406
6	2377	196.862118620927	407
6	2399	199.486836494957	408
6	2399	199.486836494957	409
6	2399	199.486836494957	410
6	2399	199.486836494957	411
6	2422	201.210468758672	412
6	2422	201.210468758672	413
6	2422	201.210468758672	414
6	2422	201.210468758672	415
6	2447	202.239239282363	416
6	2447	202.239239282363	417
6	2447	202.239239282363	418
6	2447	202.239239282363	419
6	2468	203.657448344704	420
6	2468	203.657448344704	421
6	2468	203.657448344704	422
6	2468	203.657448344704	423
6	2490	205.065487202856	424
6	2490	205.065487202856	425
6	2490	205.065487202856	426
6	2490	205.065487202856	427
6	2513	206.183434349405	428
6	2513	206.183434349405	429
6	2513	206.183434349405	430
6	2513	206.183434349405	431
6	2543	208.082848792923	432
6	2543	208.082848792923	433
6	2543	208.082848792923	434
6	2543	208.082848792923	435
6	2559	209.810539320657	436
6	2559	209.810539320657	437
6	2559	209.810539320657	438
6	2559	209.810539320657	439
6	2585	211.810176084437	440
6	2585	211.810176084437	441
6	2585	211.810176084437	442
6	2585	211.810176084437	443
6	2612	212.864461659812	444
6	2612	212.864461659812	445
6	2612	212.864461659812	446
6	2612	212.864461659812	447
6	2631	216.653743952171	448
6	2631	216.653743952171	449
6	2631	216.653743952171	450
6	2631	216.653743952171	451
6	2656	217.673947709294	452
6	2656	217.673947709294	453
6	2656	217.673947709294	454
6	2656	217.673947709294	455
6	2676	219.01879096998	456
6	2676	219.01879096998	457
6	2676	219.01879096998	458
6	2676	219.01879096998	459
6	2699	220.651264276493	460
6	2699	220.651264276493	461
6	2699	220.651264276493	462
6	2699	220.651264276493	463
6	2719	222.469600026429	464
6	2719	222.469600026429	465
6	2719	222.469600026429	466
6	2719	222.469600026429	467
6	2743	223.851905196814	468
6	2743	223.851905196814	469
6	2743	223.851905196814	470
6	2743	223.851905196814	471
6	2766	225.767211158604	472
6	2766	225.767211158604	473
6	2766	225.767211158604	474
6	2766	225.767211158604	475
6	2788	227.728553757049	476
6	2788	227.728553757049	477
6	2788	227.728553757049	478
6	2788	227.728553757049	479
6	2816	229.564979214252	480
6	2816	229.564979214252	481
6	2816	229.564979214252	482
6	2816	229.564979214252	483
6	2859	235.197028454061	484
6	2859	235.197028454061	485
6	2859	235.197028454061	486
6	2859	235.197028454061	487
6	2871	236.357119478779	488
6	2871	236.357119478779	489
6	2871	236.357119478779	490
6	2871	236.357119478779	491
6	2894	237.666577369587	492
6	2894	237.666577369587	493
6	2894	237.666577369587	494
6	2894	237.666577369587	495
6	2918	239.276909784437	496
6	2918	239.276909784437	497
6	2918	239.276909784437	498
6	2918	239.276909784437	499

