version 2
run General-4-20230921-21:39:56-6137
attr configname General
attr datetime 20230921-21:39:56
attr experiment General
attr inifile omnetpp.ini
attr iterationvars ""
attr iterationvarsf ""
attr measurement ""
attr network Network2
attr processid 6137
attr repetition 4
attr replication #4
attr resultdir results
attr runnumber 4
attr seedset 4
param Network2.node[*].transmissionTime "uniform(1s, 2s)"
param Network2.node[*].delayTime "uniform(0.01s, 0.2s)"
param Network2.node[*].processingTime exponential(0.01s)
param Network2.node[*].lossProbability 0.2

vector 0 Network2.node[0] txVector ETV
vector 1 Network2.node[1] txVector ETV
vector 2 Network2.node[6] txVector ETV
vector 3 Network2.node[3] txVector ETV
vector 4 Network2.node[2] txVector ETV
vector 5 Network2.node[4] txVector ETV
vector 6 Network2.node[5] rxVector ETV
0	1	0.193735669288	0
0	24	2.094357123985	1
0	47	3.957350359219	2
0	49	5.403699559779	3
0	51	6.845048093158	4
0	74	7.910757631916	5
0	97	9.548367880672	6
0	120	10.801277489789	7
0	143	12.705945079835	8
0	153	14.512961626207	9
0	173	16.104835271989	10
0	192	17.891588417967	11
0	215	19.364209729866	12
0	238	20.866857802649	13
0	240	22.809443658139	14
0	263	24.274933334827	15
0	286	25.778834317965	16
0	309	27.704642913691	17
0	332	28.931623933059	18
0	355	30.900298063098	19
0	362	32.784340449995	20
0	385	34.159680595076	21
0	387	35.243580977585	22
0	410	36.858942992439	23
0	433	38.12930847417	24
0	456	39.219900835225	25
0	458	40.399750471035	26
0	481	41.836773944939	27
0	491	43.706199862682	28
0	514	45.657868454852	29
0	537	46.695613636323	30
0	560	47.76458307045	31
0	583	49.19085423361	32
0	606	51.152457418073	33
0	629	53.100515225124	34
0	648	54.34531449961	35
0	671	55.65013020827	36
0	694	57.05921127942	37
0	717	58.762341157455	38
0	740	60.361873377036	39
0	763	61.735161205209	40
0	786	63.616198441168	41
0	809	65.426861844413	42
0	811	67.042983832691	43
0	813	68.141019678131	44
0	836	69.800877927492	45
0	859	71.240352115051	46
0	882	72.425618394899	47
0	884	73.769238668882	48
0	886	74.898222453349	49
0	909	76.393092171444	50
0	932	77.456015555809	51
0	955	79.439981266546	52
0	978	81.411553310386	53
0	1001	83.218573841888	54
0	1024	85.189620369503	55
0	1044	86.775107696343	56
0	1067	88.247341834165	57
0	1090	89.934121083159	58
0	1113	91.082106663071	59
0	1132	92.44465585674	60
0	1151	94.072849285014	61
0	1153	95.09402273448	62
0	1176	96.660583711619	63
0	1178	98.036148630705	64
0	1180	99.645412181428	65
0	1199	100.7666727164	66
0	1222	102.553839966812	67
0	1224	103.640143377165	68
0	1247	105.140859460382	69
0	1249	106.860514188808	70
0	1251	108.402365644852	71
0	1274	109.533037968602	72
0	1297	110.658524568116	73
0	1320	112.366096098132	74
0	1339	113.843805321648	75
0	1341	115.681445350561	76
0	1364	117.626256694242	77
0	1387	118.764205025665	78
0	1389	120.080579794867	79
0	1412	121.22355370472	80
0	1435	122.467952210147	81
0	1458	124.288367107667	82
0	1460	126.047579902148	83
0	1483	127.613773078814	84
0	1485	128.884969917282	85
0	1508	130.661056296125	86
0	1531	132.199661716742	87
0	1554	134.115991558337	88
0	1577	135.289540041394	89
0	1579	137.249794891726	90
0	1602	138.419818929087	91
0	1609	139.458417103549	92
0	1632	141.027462695416	93
0	1655	142.145732747082	94
0	1678	143.977980883716	95
0	1680	145.865870161139	96
0	1703	147.754668361664	97
0	1705	149.360105140757	98
0	1728	150.386888477642	99
0	1751	151.61843558044	100
0	1774	153.478621201513	101
0	1797	155.052720955729	102
0	1820	156.1445804957	103
0	1843	157.827000275876	104
0	1866	158.982831427285	105
0	1876	160.685015739098	106
0	1899	162.503097935969	107
0	1901	164.336902448831	108
0	1924	165.977693838457	109
0	1947	167.022412661154	110
0	1970	168.08542551861	111
0	1993	169.948863550246	112
0	2016	171.09855508331	113
0	2039	172.104709359741	114
0	2041	173.865321684553	115
0	2064	175.144852682407	116
0	2087	176.906300432672	117
0	2110	178.610336348339	118
0	2133	180.080620266422	119
0	2156	181.257526477491	120
0	2179	182.619830471854	121
0	2202	184.267087332131	122
0	2225	186.11773003933	123
0	2248	187.81002493754	124
0	2250	189.503908935394	125
0	2273	191.474173060544	126
0	2296	193.439789437615	127
0	2319	195.195779036889	128
0	2342	196.656997022145	129
0	2365	198.360723745702	130
0	2372	200.195301962942	131
0	2395	202.03514538209	132
0	2415	203.07250056292	133
0	2417	205.051129041864	134
0	2440	206.237904449618	135
0	2463	207.264542767937	136
0	2486	208.513329480468	137
0	2488	210.389691046132	138
0	2511	212.210446810974	139
0	2534	213.80109693219	140
0	2557	215.287052675775	141
0	2559	216.414811885143	142
0	2566	217.487752181404	143
0	2589	218.965991261574	144
0	2612	220.833637754359	145
0	2635	222.147962634611	146
0	2658	223.831730778721	147
0	2681	225.08292449724	148
0	2683	226.470922828578	149
0	2706	227.85933962294	150
0	2726	229.808625264951	151
0	2749	230.973641426229	152
0	2772	232.0068415696	153
0	2795	233.323256923744	154
0	2818	234.848486496062	155
0	2841	235.922397295871	156
0	2864	237.731911376045	157
0	2887	238.899901664975	158
1	3	0.205631491707	0
1	3	0.205631491707	1
1	3	0.205631491707	2
1	3	0.205631491707	3
1	26	2.145341055476	4
1	26	2.145341055476	5
1	26	2.145341055476	6
1	26	2.145341055476	7
1	53	6.856982256749	8
1	53	6.856982256749	9
1	53	6.856982256749	10
1	53	6.856982256749	11
1	76	7.925890843307	12
1	76	7.925890843307	13
1	76	7.925890843307	14
1	76	7.925890843307	15
1	99	9.558853540263	16
1	99	9.558853540263	17
1	99	9.558853540263	18
1	99	9.558853540263	19
1	122	10.816466491353	20
1	122	10.816466491353	21
1	122	10.816466491353	22
1	122	10.816466491353	23
1	145	12.717002912852	24
1	145	12.717002912852	25
1	145	12.717002912852	26
1	145	12.717002912852	27
1	155	14.552990133692	28
1	155	14.552990133692	29
1	155	14.552990133692	30
1	155	14.552990133692	31
1	175	16.126535628056	32
1	175	16.126535628056	33
1	175	16.126535628056	34
1	175	16.126535628056	35
1	194	17.906577078417	36
1	194	17.906577078417	37
1	194	17.906577078417	38
1	194	17.906577078417	39
1	217	19.387972964766	40
1	217	19.387972964766	41
1	217	19.387972964766	42
1	217	19.387972964766	43
1	242	22.833840341512	44
1	242	22.833840341512	45
1	242	22.833840341512	46
1	242	22.833840341512	47
1	265	24.294473765734	48
1	265	24.294473765734	49
1	265	24.294473765734	50
1	265	24.294473765734	51
1	288	25.801580134944	52
1	288	25.801580134944	53
1	288	25.801580134944	54
1	288	25.801580134944	55
1	311	27.729513861104	56
1	311	27.729513861104	57
1	311	27.729513861104	58
1	311	27.729513861104	59
1	334	28.95810306743	60
1	334	28.95810306743	61
1	334	28.95810306743	62
1	334	28.95810306743	63
1	357	30.910499502023	64
1	357	30.910499502023	65
1	357	30.910499502023	66
1	357	30.910499502023	67
1	364	32.794642712424	68
1	364	32.794642712424	69
1	364	32.794642712424	70
1	364	32.794642712424	71
1	389	35.255752979542	72
1	389	35.255752979542	73
1	389	35.255752979542	74
1	389	35.255752979542	75
1	412	36.87025807418	76
1	412	36.87025807418	77
1	412	36.87025807418	78
1	412	36.87025807418	79
1	435	38.14680595437	80
1	435	38.14680595437	81
1	435	38.14680595437	82
1	435	38.14680595437	83
1	460	40.429858897714	84
1	460	40.429858897714	85
1	460	40.429858897714	86
1	460	40.429858897714	87
1	483	41.8511188877	88
1	483	41.8511188877	89
1	483	41.8511188877	90
1	483	41.8511188877	91
1	493	43.727070305222	92
1	493	43.727070305222	93
1	493	43.727070305222	94
1	493	43.727070305222	95
1	516	45.678177295769	96
1	516	45.678177295769	97
1	516	45.678177295769	98
1	516	45.678177295769	99
1	539	46.728562223948	100
1	539	46.728562223948	101
1	539	46.728562223948	102
1	539	46.728562223948	103
1	562	47.776691885839	104
1	562	47.776691885839	105
1	562	47.776691885839	106
1	562	47.776691885839	107
1	585	49.205622964745	108
1	585	49.205622964745	109
1	585	49.205622964745	110
1	585	49.205622964745	111
1	608	51.182704553047	112
1	608	51.182704553047	113
1	608	51.182704553047	114
1	608	51.182704553047	115
1	631	53.134679069116	116
1	631	53.134679069116	117
1	631	53.134679069116	118
1	631	53.134679069116	119
1	650	54.355970956272	120
1	650	54.355970956272	121
1	650	54.355970956272	122
1	650	54.355970956272	123
1	673	55.671264862257	124
1	673	55.671264862257	125
1	673	55.671264862257	126
1	673	55.671264862257	127
1	696	57.070809763328	128
1	696	57.070809763328	129
1	696	57.070809763328	130
1	696	57.070809763328	131
1	719	58.772783607646	132
1	719	58.772783607646	133
1	719	58.772783607646	134
1	719	58.772783607646	135
1	742	60.388144102018	136
1	742	60.388144102018	137
1	742	60.388144102018	138
1	742	60.388144102018	139
1	765	61.74893849329	140
1	765	61.74893849329	141
1	765	61.74893849329	142
1	765	61.74893849329	143
1	788	63.659270640411	144
1	788	63.659270640411	145
1	788	63.659270640411	146
1	788	63.659270640411	147
1	815	68.159547718435	148
1	815	68.159547718435	149
1	815	68.159547718435	150
1	815	68.159547718435	151
1	838	69.813495032585	152
1	838	69.813495032585	153
1	838	69.813495032585	154
1	838	69.813495032585	155
1	861	71.250824855597	156
1	861	71.250824855597	157
1	861	71.250824855597	158
1	861	71.250824855597	159
1	888	74.922661351169	160
1	888	74.922661351169	161
1	888	74.922661351169	162
1	888	74.922661351169	163
1	911	76.411994658734	164
1	911	76.411994658734	165
1	911	76.411994658734	166
1	911	76.411994658734	167
1	934	77.471646337465	168
1	934	77.471646337465	169
1	934	77.471646337465	170
1	934	77.471646337465	171
1	957	79.452129708943	172
1	957	79.452129708943	173
1	957	79.452129708943	174
1	957	79.452129708943	175
1	980	81.424920027736	176
1	980	81.424920027736	177
1	980	81.424920027736	178
1	980	81.424920027736	179
1	1003	83.23496713964	180
1	1003	83.23496713964	181
1	1003	83.23496713964	182
1	1003	83.23496713964	183
1	1026	85.200032320237	184
1	1026	85.200032320237	185
1	1026	85.200032320237	186
1	1026	85.200032320237	187
1	1046	86.785295151373	188
1	1046	86.785295151373	189
1	1046	86.785295151373	190
1	1046	86.785295151373	191
1	1069	88.272001283467	192
1	1069	88.272001283467	193
1	1069	88.272001283467	194
1	1069	88.272001283467	195
1	1092	89.945584925283	196
1	1092	89.945584925283	197
1	1092	89.945584925283	198
1	1092	89.945584925283	199
1	1115	91.096273908747	200
1	1115	91.096273908747	201
1	1115	91.096273908747	202
1	1115	91.096273908747	203
1	1134	92.461079714606	204
1	1134	92.461079714606	205
1	1134	92.461079714606	206
1	1134	92.461079714606	207
1	1155	95.110998145685	208
1	1155	95.110998145685	209
1	1155	95.110998145685	210
1	1155	95.110998145685	211
1	1182	99.660335322701	212
1	1182	99.660335322701	213
1	1182	99.660335322701	214
1	1182	99.660335322701	215
1	1201	100.78571809674	216
1	1201	100.78571809674	217
1	1201	100.78571809674	218
1	1201	100.78571809674	219
1	1226	103.6811768569	220
1	1226	103.6811768569	221
1	1226	103.6811768569	222
1	1226	103.6811768569	223
1	1253	108.428685905883	224
1	1253	108.428685905883	225
1	1253	108.428685905883	226
1	1253	108.428685905883	227
1	1276	109.545220099988	228
1	1276	109.545220099988	229
1	1276	109.545220099988	230
1	1276	109.545220099988	231
1	1299	110.675998414225	232
1	1299	110.675998414225	233
1	1299	110.675998414225	234
1	1299	110.675998414225	235
1	1322	112.385311195973	236
1	1322	112.385311195973	237
1	1322	112.385311195973	238
1	1322	112.385311195973	239
1	1343	115.715094349681	240
1	1343	115.715094349681	241
1	1343	115.715094349681	242
1	1343	115.715094349681	243
1	1366	117.655973467371	244
1	1366	117.655973467371	245
1	1366	117.655973467371	246
1	1366	117.655973467371	247
1	1391	120.105579745162	248
1	1391	120.105579745162	249
1	1391	120.105579745162	250
1	1391	120.105579745162	251
1	1414	121.246125816603	252
1	1414	121.246125816603	253
1	1414	121.246125816603	254
1	1414	121.246125816603	255
1	1437	122.478908869497	256
1	1437	122.478908869497	257
1	1437	122.478908869497	258
1	1437	122.478908869497	259
1	1462	126.058355515826	260
1	1462	126.058355515826	261
1	1462	126.058355515826	262
1	1462	126.058355515826	263
1	1487	128.899418749019	264
1	1487	128.899418749019	265
1	1487	128.899418749019	266
1	1487	128.899418749019	267
1	1510	130.682051551865	268
1	1510	130.682051551865	269
1	1510	130.682051551865	270
1	1510	130.682051551865	271
1	1533	132.247066888486	272
1	1533	132.247066888486	273
1	1533	132.247066888486	274
1	1533	132.247066888486	275
1	1556	134.133158003185	276
1	1556	134.133158003185	277
1	1556	134.133158003185	278
1	1556	134.133158003185	279
1	1581	137.26082473391	280
1	1581	137.26082473391	281
1	1581	137.26082473391	282
1	1581	137.26082473391	283
1	1604	138.430343615161	284
1	1604	138.430343615161	285
1	1604	138.430343615161	286
1	1604	138.430343615161	287
1	1611	139.487003215824	288
1	1611	139.487003215824	289
1	1611	139.487003215824	290
1	1611	139.487003215824	291
1	1634	141.04268987618	292
1	1634	141.04268987618	293
1	1634	141.04268987618	294
1	1634	141.04268987618	295
1	1657	142.158509055293	296
1	1657	142.158509055293	297
1	1657	142.158509055293	298
1	1657	142.158509055293	299
1	1682	145.927219547223	300
1	1682	145.927219547223	301
1	1682	145.927219547223	302
1	1682	145.927219547223	303
1	1707	149.403761815046	304
1	1707	149.403761815046	305
1	1707	149.403761815046	306
1	1707	149.403761815046	307
1	1730	150.406625937175	308
1	1730	150.406625937175	309
1	1730	150.406625937175	310
1	1730	150.406625937175	311
1	1753	151.633826994394	312
1	1753	151.633826994394	313
1	1753	151.633826994394	314
1	1753	151.633826994394	315
1	1776	153.51719568204	316
1	1776	153.51719568204	317
1	1776	153.51719568204	318
1	1776	153.51719568204	319
1	1799	155.069628401443	320
1	1799	155.069628401443	321
1	1799	155.069628401443	322
1	1799	155.069628401443	323
1	1822	156.175006344561	324
1	1822	156.175006344561	325
1	1822	156.175006344561	326
1	1822	156.175006344561	327
1	1845	157.844358323909	328
1	1845	157.844358323909	329
1	1845	157.844358323909	330
1	1845	157.844358323909	331
1	1868	159.010621534937	332
1	1868	159.010621534937	333
1	1868	159.010621534937	334
1	1868	159.010621534937	335
1	1878	160.704824093071	336
1	1878	160.704824093071	337
1	1878	160.704824093071	338
1	1878	160.704824093071	339
1	1903	164.356782519685	340
1	1903	164.356782519685	341
1	1903	164.356782519685	342
1	1903	164.356782519685	343
1	1926	165.99318759497	344
1	1926	165.99318759497	345
1	1926	165.99318759497	346
1	1926	165.99318759497	347
1	1949	167.061987083943	348
1	1949	167.061987083943	349
1	1949	167.061987083943	350
1	1949	167.061987083943	351
1	1972	168.103339945584	352
1	1972	168.103339945584	353
1	1972	168.103339945584	354
1	1972	168.103339945584	355
1	1995	169.962422076546	356
1	1995	169.962422076546	357
1	1995	169.962422076546	358
1	1995	169.962422076546	359
1	2018	171.131183705491	360
1	2018	171.131183705491	361
1	2018	171.131183705491	362
1	2018	171.131183705491	363
1	2043	173.890420389273	364
1	2043	173.890420389273	365
1	2043	173.890420389273	366
1	2043	173.890420389273	367
1	2066	175.162672067716	368
1	2066	175.162672067716	369
1	2066	175.162672067716	370
1	2066	175.162672067716	371
1	2089	176.923057423825	372
1	2089	176.923057423825	373
1	2089	176.923057423825	374
1	2089	176.923057423825	375
1	2112	178.622261581048	376
1	2112	178.622261581048	377
1	2112	178.622261581048	378
1	2112	178.622261581048	379
1	2135	180.091581574523	380
1	2135	180.091581574523	381
1	2135	180.091581574523	382
1	2135	180.091581574523	383
1	2158	181.287334894699	384
1	2158	181.287334894699	385
1	2158	181.287334894699	386
1	2158	181.287334894699	387
1	2181	182.630412934715	388
1	2181	182.630412934715	389
1	2181	182.630412934715	390
1	2181	182.630412934715	391
1	2204	184.296741681608	392
1	2204	184.296741681608	393
1	2204	184.296741681608	394
1	2204	184.296741681608	395
1	2227	186.146124338391	396
1	2227	186.146124338391	397
1	2227	186.146124338391	398
1	2227	186.146124338391	399
1	2252	189.521028157207	400
1	2252	189.521028157207	401
1	2252	189.521028157207	402
1	2252	189.521028157207	403
1	2275	191.526501713176	404
1	2275	191.526501713176	405
1	2275	191.526501713176	406
1	2275	191.526501713176	407
1	2298	193.467053732402	408
1	2298	193.467053732402	409
1	2298	193.467053732402	410
1	2298	193.467053732402	411
1	2321	195.259125190201	412
1	2321	195.259125190201	413
1	2321	195.259125190201	414
1	2321	195.259125190201	415
1	2344	196.681314167508	416
1	2344	196.681314167508	417
1	2344	196.681314167508	418
1	2344	196.681314167508	419
1	2367	198.381483040278	420
1	2367	198.381483040278	421
1	2367	198.381483040278	422
1	2367	198.381483040278	423
1	2374	200.20803355342	424
1	2374	200.20803355342	425
1	2374	200.20803355342	426
1	2374	200.20803355342	427
1	2397	202.051315030289	428
1	2397	202.051315030289	429
1	2397	202.051315030289	430
1	2397	202.051315030289	431
1	2419	205.070044142578	432
1	2419	205.070044142578	433
1	2419	205.070044142578	434
1	2419	205.070044142578	435
1	2442	206.252114052761	436
1	2442	206.252114052761	437
1	2442	206.252114052761	438
1	2442	206.252114052761	439
1	2465	207.276707443837	440
1	2465	207.276707443837	441
1	2465	207.276707443837	442
1	2465	207.276707443837	443
1	2490	210.400681301891	444
1	2490	210.400681301891	445
1	2490	210.400681301891	446
1	2490	210.400681301891	447
1	2513	212.222226697885	448
1	2513	212.222226697885	449
1	2513	212.222226697885	450
1	2513	212.222226697885	451
1	2536	213.816790120958	452
1	2536	213.816790120958	453
1	2536	213.816790120958	454
1	2536	213.816790120958	455
1	2561	216.453930614877	456
1	2561	216.453930614877	457
1	2561	216.453930614877	458
1	2561	216.453930614877	459
1	2568	217.500631874346	460
1	2568	217.500631874346	461
1	2568	217.500631874346	462
1	2568	217.500631874346	463
1	2591	218.97613809209	464
1	2591	218.97613809209	465
1	2591	218.97613809209	466
1	2591	218.97613809209	467
1	2614	220.864299271877	468
1	2614	220.864299271877	469
1	2614	220.864299271877	470
1	2614	220.864299271877	471
1	2637	222.158351552471	472
1	2637	222.158351552471	473
1	2637	222.158351552471	474
1	2637	222.158351552471	475
1	2660	223.849299658172	476
1	2660	223.849299658172	477
1	2660	223.849299658172	478
1	2660	223.849299658172	479
1	2685	226.484493667972	480
1	2685	226.484493667972	481
1	2685	226.484493667972	482
1	2685	226.484493667972	483
1	2708	227.870103897029	484
1	2708	227.870103897029	485
1	2708	227.870103897029	486
1	2708	227.870103897029	487
1	2728	229.829311489803	488
1	2728	229.829311489803	489
1	2728	229.829311489803	490
1	2728	229.829311489803	491
1	2751	230.984198057525	492
1	2751	230.984198057525	493
1	2751	230.984198057525	494
1	2751	230.984198057525	495
1	2774	232.021967452894	496
1	2774	232.021967452894	497
1	2774	232.021967452894	498
1	2774	232.021967452894	499
1	2797	233.335186644862	500
1	2797	233.335186644862	501
1	2797	233.335186644862	502
1	2797	233.335186644862	503
1	2820	234.867429617215	504
1	2820	234.867429617215	505
1	2820	234.867429617215	506
1	2820	234.867429617215	507
1	2843	235.941383028966	508
1	2843	235.941383028966	509
1	2843	235.941383028966	510
1	2843	235.941383028966	511
1	2866	237.748268883201	512
1	2866	237.748268883201	513
1	2866	237.748268883201	514
1	2866	237.748268883201	515
1	2889	238.913671721303	516
1	2889	238.913671721303	517
1	2889	238.913671721303	518
1	2889	238.913671721303	519
2	8	0.218066095948	0
2	8	0.218066095948	1
2	31	2.155431322606	2
2	31	2.155431322606	3
2	59	6.874488088178	4
2	59	6.874488088178	5
2	81	7.938414411143	6
2	81	7.938414411143	7
2	104	9.570978623421	8
2	104	9.570978623421	9
2	128	10.839688093505	10
2	128	10.839688093505	11
2	150	12.734769825567	12
2	150	12.734769825567	13
2	180	16.138145850216	14
2	180	16.138145850216	15
2	199	17.918049624752	16
2	199	17.918049624752	17
2	227	19.413813607309	18
2	227	19.413813607309	19
2	248	22.844721906371	20
2	248	22.844721906371	21
2	271	24.314540557261	22
2	271	24.314540557261	23
2	302	25.858808926335	24
2	302	25.858808926335	25
2	317	27.745393459802	26
2	317	27.745393459802	27
2	340	28.976246775356	28
2	340	28.976246775356	29
2	369	32.805565077729	30
2	369	32.805565077729	31
2	400	35.285461065696	32
2	400	35.285461065696	33
2	418	36.892573051619	34
2	418	36.892573051619	35
2	441	38.171055730029	36
2	441	38.171055730029	37
2	478	40.512536329839	38
2	478	40.512536329839	39
2	488	41.861982177736	40
2	488	41.861982177736	41
2	503	43.752740365884	42
2	503	43.752740365884	43
2	525	45.708209099973	44
2	525	45.708209099973	45
2	550	46.765674169693	46
2	550	46.765674169693	47
2	574	47.805412446391	48
2	574	47.805412446391	49
2	591	49.217793475731	50
2	591	49.217793475731	51
2	613	51.192718120961	52
2	613	51.192718120961	53
2	637	53.14755778211	54
2	637	53.14755778211	55
2	656	54.371623003747	56
2	656	54.371623003747	57
2	678	55.682074455231	58
2	678	55.682074455231	59
2	701	57.085521843951	60
2	701	57.085521843951	61
2	725	58.79128351634	62
2	725	58.79128351634	63
2	757	60.423798329224	64
2	757	60.423798329224	65
2	783	61.808379423951	66
2	783	61.808379423951	67
2	799	63.687279407336	68
2	799	63.687279407336	69
2	820	68.173610911531	70
2	820	68.173610911531	71
2	843	69.824568273844	72
2	843	69.824568273844	73
2	866	71.261284569332	74
2	866	71.261284569332	75
2	894	74.936290315579	76
2	894	74.936290315579	77
2	925	76.449350810482	78
2	925	76.449350810482	79
2	944	77.505732536676	80
2	944	77.505732536676	81
2	962	79.464279218161	82
2	962	79.464279218161	83
2	985	81.450168231436	84
2	985	81.450168231436	85
2	1008	83.257664651473	86
2	1008	83.257664651473	87
2	1061	86.828083583261	88
2	1061	86.828083583261	89
2	1074	88.282407518942	90
2	1074	88.282407518942	91
2	1107	89.975112154459	92
2	1107	89.975112154459	93
2	1126	91.134080771262	94
2	1126	91.134080771262	95
2	1139	92.483383609335	96
2	1139	92.483383609335	97
2	1166	95.139662202652	98
2	1166	95.139662202652	99
2	1193	99.701369528401	100
2	1193	99.701369528401	101
2	1206	100.799256502103	102
2	1206	100.799256502103	103
2	1232	103.695610128083	104
2	1232	103.695610128083	105
2	1263	108.476141192113	106
2	1263	108.476141192113	107
2	1281	109.555386512534	108
2	1281	109.555386512534	109
2	1305	110.68680244397	110
2	1305	110.68680244397	111
2	1336	112.434315222328	112
2	1336	112.434315222328	113
2	1348	115.729148027914	114
2	1348	115.729148027914	115
2	1372	117.673620169968	116
2	1372	117.673620169968	117
2	1402	120.127404766802	118
2	1402	120.127404766802	119
2	1419	121.256671451008	120
2	1419	121.256671451008	121
2	1455	122.525701200891	122
2	1455	122.525701200891	123
2	1467	126.075153381983	124
2	1467	126.075153381983	125
2	1497	128.930840366564	126
2	1497	128.930840366564	127
2	1515	130.693416411751	128
2	1515	130.693416411751	129
2	1547	132.271758657008	130
2	1547	132.271758657008	131
2	1574	134.188379148894	132
2	1574	134.188379148894	133
2	1586	137.276142425971	134
2	1586	137.276142425971	135
2	1617	139.511933105407	136
2	1617	139.511933105407	137
2	1648	141.07624273366	138
2	1648	141.07624273366	139
2	1675	142.217150989126	140
2	1675	142.217150989126	141
2	1688	145.942399741886	142
2	1688	145.942399741886	143
2	1725	149.445044390143	144
2	1725	149.445044390143	145
2	1740	150.441872747554	146
2	1740	150.441872747554	147
2	1758	151.653162047035	148
2	1758	151.653162047035	149
2	1787	153.551083354088	150
2	1787	153.551083354088	151
2	1806	155.091203384425	152
2	1806	155.091203384425	153
2	1827	156.190417122028	154
2	1827	156.190417122028	155
2	1850	157.857420699726	156
2	1850	157.857420699726	157
2	1873	159.023467990796	158
2	1873	159.023467990796	159
2	1883	160.71561970487	160
2	1883	160.71561970487	161
2	1908	164.374878973694	162
2	1908	164.374878973694	163
2	1931	166.012612080261	164
2	1931	166.012612080261	165
2	1955	167.079476707145	166
2	1955	167.079476707145	167
2	1977	168.116997941404	168
2	1977	168.116997941404	169
2	2001	169.982058151476	170
2	2001	169.982058151476	171
2	2036	171.186231985223	172
2	2036	171.186231985223	173
2	2048	173.904874184422	174
2	2048	173.904874184422	175
2	2073	175.179952359877	176
2	2073	175.179952359877	177
2	2095	176.945919507076	178
2	2095	176.945919507076	179
2	2117	178.635650105245	180
2	2117	178.635650105245	181
2	2141	180.119035427553	182
2	2141	180.119035427553	183
2	2164	181.308654376416	184
2	2164	181.308654376416	185
2	2199	182.691612080702	186
2	2199	182.691612080702	187
2	2209	184.312327628358	188
2	2209	184.312327628358	189
2	2242	186.191795116339	190
2	2242	186.191795116339	191
2	2257	189.537138680508	192
2	2257	189.537138680508	193
2	2280	191.536816330091	194
2	2280	191.536816330091	195
2	2303	193.480415605609	196
2	2303	193.480415605609	197
2	2330	195.282083438155	198
2	2330	195.282083438155	199
2	2350	196.705321051083	200
2	2350	196.705321051083	201
2	2388	200.244565699131	202
2	2388	200.244565699131	203
2	2424	205.083562514544	204
2	2424	205.083562514544	205
2	2454	206.296126381525	206
2	2454	206.296126381525	207
2	2471	207.292872145508	208
2	2471	207.292872145508	209
2	2495	210.411041794493	210
2	2495	210.411041794493	211
2	2519	212.237471414484	212
2	2519	212.237471414484	213
2	2543	213.836093918896	214
2	2543	213.836093918896	215
2	2574	217.513844948954	216
2	2574	217.513844948954	217
2	2605	219.013686864194	218
2	2605	219.013686864194	219
2	2625	220.894736860857	220
2	2625	220.894736860857	221
2	2652	222.200463840415	222
2	2652	222.200463840415	223
2	2672	223.906584109719	224
2	2672	223.906584109719	225
2	2699	226.510834179857	226
2	2699	226.510834179857	227
2	2737	229.85404346065	228
2	2737	229.85404346065	229
2	2756	231.011646238027	230
2	2756	231.011646238027	231
2	2780	232.03438116893	232
2	2780	232.03438116893	233
2	2803	233.354636553568	234
2	2803	233.354636553568	235
2	2834	234.893283907375	236
2	2834	234.893283907375	237
2	2853	235.971703319846	238
2	2853	235.971703319846	239
2	2876	237.769674731694	240
2	2876	237.769674731694	241
2	2894	238.926836763407	242
2	2894	238.926836763407	243
3	9	0.227595799025	0
3	9	0.227595799025	1
3	9	0.227595799025	2
3	32	2.164437532503	3
3	32	2.164437532503	4
3	32	2.164437532503	5
3	58	6.872232243582	6
3	58	6.872232243582	7
3	58	6.872232243582	8
3	83	7.9459056259	9
3	83	7.9459056259	10
3	83	7.9459056259	11
3	106	9.579002422727	12
3	106	9.579002422727	13
3	106	9.579002422727	14
3	133	10.845221529211	15
3	133	10.845221529211	16
3	133	10.845221529211	17
3	165	14.594818815054	18
3	165	14.594818815054	19
3	165	14.594818815054	20
3	181	16.147529587113	21
3	181	16.147529587113	22
3	181	16.147529587113	23
3	200	17.921215006905	24
3	200	17.921215006905	25
3	200	17.921215006905	26
3	230	19.42649324021	27
3	230	19.42649324021	28
3	230	19.42649324021	29
3	247	22.844215922663	30
3	247	22.844215922663	31
3	247	22.844215922663	32
3	270	24.310859750836	33
3	270	24.310859750836	34
3	270	24.310859750836	35
3	298	25.845182018573	36
3	298	25.845182018573	37
3	298	25.845182018573	38
3	316	27.743667900768	39
3	316	27.743667900768	40
3	316	27.743667900768	41
3	339	28.969056185239	42
3	339	28.969056185239	43
3	339	28.969056185239	44
3	377	32.8202231528	45
3	377	32.8202231528	46
3	377	32.8202231528	47
3	401	35.287480329373	48
3	401	35.287480329373	49
3	401	35.287480329373	50
3	417	36.889116523777	51
3	417	36.889116523777	52
3	417	36.889116523777	53
3	440	38.163957962671	54
3	440	38.163957962671	55
3	440	38.163957962671	56
3	465	40.457930138996	57
3	465	40.457930138996	58
3	465	40.457930138996	59
3	504	43.757869709637	60
3	504	43.757869709637	61
3	504	43.757869709637	62
3	521	45.693398787814	63
3	521	45.693398787814	64
3	521	45.693398787814	65
3	554	46.77427261644	66
3	554	46.77427261644	67
3	554	46.77427261644	68
3	573	47.805083812509	69
3	573	47.805083812509	70
3	573	47.805083812509	71
3	590	49.216128792586	72
3	590	49.216128792586	73
3	590	49.216128792586	74
3	615	51.200274518943	75
3	615	51.200274518943	76
3	615	51.200274518943	77
3	642	53.155396463964	78
3	642	53.155396463964	79
3	642	53.155396463964	80
3	655	54.371043407382	81
3	655	54.371043407382	82
3	655	54.371043407382	83
3	679	55.686941796877	84
3	679	55.686941796877	85
3	679	55.686941796877	86
3	702	57.091279674258	87
3	702	57.091279674258	88
3	702	57.091279674258	89
3	724	58.789675814821	90
3	724	58.789675814821	91
3	724	58.789675814821	92
3	748	60.410327021365	93
3	748	60.410327021365	94
3	748	60.410327021365	95
3	770	61.769977885264	96
3	770	61.769977885264	97
3	770	61.769977885264	98
3	794	63.678622999986	99
3	794	63.678622999986	100
3	794	63.678622999986	101
3	821	68.178021087793	102
3	821	68.178021087793	103
3	821	68.178021087793	104
3	852	69.843065068055	105
3	852	69.843065068055	106
3	852	69.843065068055	107
3	867	71.26744304641	108
3	867	71.26744304641	109
3	867	71.26744304641	110
3	902	74.958439828965	111
3	902	74.958439828965	112
3	902	74.958439828965	113
3	916	76.425478425743	114
3	916	76.425478425743	115
3	916	76.425478425743	116
3	939	77.487058668448	117
3	939	77.487058668448	118
3	939	77.487058668448	119
3	963	79.468338656008	120
3	963	79.468338656008	121
3	963	79.468338656008	122
3	986	81.457034485009	123
3	986	81.457034485009	124
3	986	81.457034485009	125
3	1020	83.306839575651	126
3	1020	83.306839575651	127
3	1020	83.306839575651	128
3	1040	85.26473286948	129
3	1040	85.26473286948	130
3	1040	85.26473286948	131
3	1051	86.798084083544	132
3	1051	86.798084083544	133
3	1051	86.798084083544	134
3	1077	88.29902491764	135
3	1077	88.29902491764	136
3	1077	88.29902491764	137
3	1097	89.957776790259	138
3	1097	89.957776790259	139
3	1097	89.957776790259	140
3	1125	91.127734899765	141
3	1125	91.127734899765	142
3	1125	91.127734899765	143
3	1147	92.514440383597	144
3	1147	92.514440383597	145
3	1147	92.514440383597	146
3	1161	95.13298561075	147
3	1161	95.13298561075	148
3	1161	95.13298561075	149
3	1192	99.694620752472	150
3	1192	99.694620752472	151
3	1192	99.694620752472	152
3	1207	100.800474451202	153
3	1207	100.800474451202	154
3	1207	100.800474451202	155
3	1240	103.706628527854	156
3	1240	103.706628527854	157
3	1240	103.706628527854	158
3	1264	108.485278150403	159
3	1264	108.485278150403	160
3	1264	108.485278150403	161
3	1282	109.565314242974	162
3	1282	109.565314242974	163
3	1282	109.565314242974	164
3	1306	110.694701272594	165
3	1306	110.694701272594	166
3	1306	110.694701272594	167
3	1327	112.39723716955	168
3	1327	112.39723716955	169
3	1327	112.39723716955	170
3	1360	115.75190481897	171
3	1360	115.75190481897	172
3	1360	115.75190481897	173
3	1371	117.669193634274	174
3	1371	117.669193634274	175
3	1371	117.669193634274	176
3	1397	120.117538256569	177
3	1397	120.117538256569	178
3	1397	120.117538256569	179
3	1421	121.263766741831	180
3	1421	121.263766741831	181
3	1421	121.263766741831	182
3	1442	122.496218916014	183
3	1442	122.496218916014	184
3	1442	122.496218916014	185
3	1475	126.099595133141	186
3	1475	126.099595133141	187
3	1475	126.099595133141	188
3	1500	128.945653425127	189
3	1500	128.945653425127	190
3	1500	128.945653425127	191
3	1516	130.697419558445	192
3	1516	130.697419558445	193
3	1516	130.697419558445	194
3	1538	132.259321204718	195
3	1538	132.259321204718	196
3	1538	132.259321204718	197
3	1561	134.143403982459	198
3	1561	134.143403982459	199
3	1561	134.143403982459	200
3	1587	137.28368801535	201
3	1587	137.28368801535	202
3	1587	137.28368801535	203
3	1616	139.502295768203	204
3	1616	139.502295768203	205
3	1616	139.502295768203	206
3	1640	141.056800920808	207
3	1640	141.056800920808	208
3	1640	141.056800920808	209
3	1663	142.178965219573	210
3	1663	142.178965219573	211
3	1663	142.178965219573	212
3	1689	145.943835232769	213
3	1689	145.943835232769	214
3	1689	145.943835232769	215
3	1712	149.420059711971	216
3	1712	149.420059711971	217
3	1712	149.420059711971	218
3	1741	150.448535932221	219
3	1741	150.448535932221	220
3	1741	150.448535932221	221
3	1760	151.656501201271	222
3	1760	151.656501201271	223
3	1760	151.656501201271	224
3	1781	153.530237393538	225
3	1781	153.530237393538	226
3	1781	153.530237393538	227
3	1805	155.084244624435	228
3	1805	155.084244624435	229
3	1805	155.084244624435	230
3	1831	156.209814755094	231
3	1831	156.209814755094	232
3	1831	156.209814755094	233
3	1851	157.860111065025	234
3	1851	157.860111065025	235
3	1851	157.860111065025	236
3	1884	160.720973485318	237
3	1884	160.720973485318	238
3	1884	160.720973485318	239
3	1916	164.39839518882	240
3	1916	164.39839518882	241
3	1916	164.39839518882	242
3	1943	166.06539878853	243
3	1943	166.06539878853	244
3	1943	166.06539878853	245
3	1954	167.072115128604	246
3	1954	167.072115128604	247
3	1954	167.072115128604	248
3	1978	168.117635795427	249
3	1978	168.117635795427	250
3	1978	168.117635795427	251
3	2002	169.983896746599	252
3	2002	169.983896746599	253
3	2002	169.983896746599	254
3	2023	171.143178659229	255
3	2023	171.143178659229	256
3	2023	171.143178659229	257
3	2052	173.919887018687	258
3	2052	173.919887018687	259
3	2052	173.919887018687	260
3	2072	175.177358982013	261
3	2072	175.177358982013	262
3	2072	175.177358982013	263
3	2094	176.941028441145	264
3	2094	176.941028441145	265
3	2094	176.941028441145	266
3	2126	178.648318173716	267
3	2126	178.648318173716	268
3	2126	178.648318173716	269
3	2140	180.114527143177	270
3	2140	180.114527143177	271
3	2140	180.114527143177	272
3	2165	181.309280942077	273
3	2165	181.309280942077	274
3	2165	181.309280942077	275
3	2186	182.660549096542	276
3	2186	182.660549096542	277
3	2186	182.660549096542	278
3	2212	184.332941663855	279
3	2212	184.332941663855	280
3	2212	184.332941663855	281
3	2232	186.16103708609	282
3	2232	186.16103708609	283
3	2232	186.16103708609	284
3	2269	189.566819280268	285
3	2269	189.566819280268	286
3	2269	189.566819280268	287
3	2284	191.548907929378	288
3	2284	191.548907929378	289
3	2284	191.548907929378	290
3	2304	193.484000604489	291
3	2304	193.484000604489	292
3	2304	193.484000604489	293
3	2326	195.269365821436	294
3	2326	195.269365821436	295
3	2326	195.269365821436	296
3	2361	196.73274775518	297
3	2361	196.73274775518	298
3	2361	196.73274775518	299
3	2380	200.231718356344	300
3	2380	200.231718356344	301
3	2380	200.231718356344	302
3	2407	202.074310308963	303
3	2407	202.074310308963	304
3	2407	202.074310308963	305
3	2425	205.088906498479	306
3	2425	205.088906498479	307
3	2425	205.088906498479	308
3	2452	206.286229126312	309
3	2452	206.286229126312	310
3	2452	206.286229126312	311
3	2470	207.288883990972	312
3	2470	207.288883990972	313
3	2470	207.288883990972	314
3	2496	210.41711994961	315
3	2496	210.41711994961	316
3	2496	210.41711994961	317
3	2526	212.25849842208	318
3	2526	212.25849842208	319
3	2526	212.25849842208	320
3	2542	213.835051480388	321
3	2542	213.835051480388	322
3	2542	213.835051480388	323
3	2573	217.511076125346	324
3	2573	217.511076125346	325
3	2573	217.511076125346	326
3	2596	218.997698862383	327
3	2596	218.997698862383	328
3	2596	218.997698862383	329
3	2619	220.877151576675	330
3	2619	220.877151576675	331
3	2619	220.877151576675	332
3	2642	222.177588950078	333
3	2642	222.177588950078	334
3	2642	222.177588950078	335
3	2671	223.901527033283	336
3	2671	223.901527033283	337
3	2671	223.901527033283	338
3	2690	226.49525352195	339
3	2690	226.49525352195	340
3	2690	226.49525352195	341
3	2714	227.894132062713	342
3	2714	227.894132062713	343
3	2714	227.894132062713	344
3	2733	229.842177568495	345
3	2733	229.842177568495	346
3	2733	229.842177568495	347
3	2768	231.038436381299	348
3	2768	231.038436381299	349
3	2768	231.038436381299	350
3	2791	232.065815091091	351
3	2791	232.065815091091	352
3	2791	232.065815091091	353
3	2814	233.380460078718	354
3	2814	233.380460078718	355
3	2814	233.380460078718	356
3	2826	234.882914284332	357
3	2826	234.882914284332	358
3	2826	234.882914284332	359
3	2848	235.955375746594	360
3	2848	235.955375746594	361
3	2848	235.955375746594	362
3	2877	237.773522974893	363
3	2877	237.773522974893	364
3	2877	237.773522974893	365
3	2895	238.927557586557	366
3	2895	238.927557586557	367
3	2895	238.927557586557	368
4	12	0.228177698444	0
4	12	0.228177698444	1
4	12	0.228177698444	2
4	12	0.228177698444	3
4	35	2.168530242006	4
4	35	2.168530242006	5
4	35	2.168530242006	6
4	35	2.168530242006	7
4	60	6.880201571506	8
4	60	6.880201571506	9
4	60	6.880201571506	10
4	60	6.880201571506	11
4	82	7.940596776278	12
4	82	7.940596776278	13
4	82	7.940596776278	14
4	82	7.940596776278	15
4	105	9.573361098308	16
4	105	9.573361098308	17
4	105	9.573361098308	18
4	105	9.573361098308	19
4	127	10.831189265006	20
4	127	10.831189265006	21
4	127	10.831189265006	22
4	127	10.831189265006	23
4	160	14.577589888939	24
4	160	14.577589888939	25
4	160	14.577589888939	26
4	160	14.577589888939	27
4	187	16.162670397387	28
4	187	16.162670397387	29
4	187	16.162670397387	30
4	187	16.162670397387	31
4	201	17.924459944276	32
4	201	17.924459944276	33
4	201	17.924459944276	34
4	201	17.924459944276	35
4	222	19.402241660408	36
4	222	19.402241660408	37
4	222	19.402241660408	38
4	222	19.402241660408	39
4	249	22.846452650282	40
4	249	22.846452650282	41
4	249	22.846452650282	42
4	249	22.846452650282	43
4	275	24.321905889456	44
4	275	24.321905889456	45
4	275	24.321905889456	46
4	275	24.321905889456	47
4	293	25.834416961465	48
4	293	25.834416961465	49
4	293	25.834416961465	50
4	293	25.834416961465	51
4	318	27.751168476541	52
4	318	27.751168476541	53
4	318	27.751168476541	54
4	318	27.751168476541	55
4	345	28.985680505485	56
4	345	28.985680505485	57
4	345	28.985680505485	58
4	345	28.985680505485	59
4	370	32.809653715328	60
4	370	32.809653715328	61
4	370	32.809653715328	62
4	370	32.809653715328	63
4	394	35.269809476491	64
4	394	35.269809476491	65
4	394	35.269809476491	66
4	394	35.269809476491	67
4	422	36.90016118727	68
4	422	36.90016118727	69
4	422	36.90016118727	70
4	422	36.90016118727	71
4	447	38.182733340443	72
4	447	38.182733340443	73
4	447	38.182733340443	74
4	447	38.182733340443	75
4	473	40.502097871211	76
4	473	40.502097871211	77
4	473	40.502097871211	78
4	473	40.502097871211	79
4	498	43.74256347385	80
4	498	43.74256347385	81
4	498	43.74256347385	82
4	498	43.74256347385	83
4	526	45.71016049188	84
4	526	45.71016049188	85
4	526	45.71016049188	86
4	526	45.71016049188	87
4	544	46.742952494013	88
4	544	46.742952494013	89
4	544	46.742952494013	90
4	544	46.742952494013	91
4	567	47.789010740145	92
4	567	47.789010740145	93
4	567	47.789010740145	94
4	567	47.789010740145	95
4	597	49.230622682244	96
4	597	49.230622682244	97
4	597	49.230622682244	98
4	597	49.230622682244	99
4	614	51.197071821072	100
4	614	51.197071821072	101
4	614	51.197071821072	102
4	614	51.197071821072	103
4	636	53.14499441611	104
4	636	53.14499441611	105
4	636	53.14499441611	106
4	636	53.14499441611	107
4	657	54.37259820015	108
4	657	54.37259820015	109
4	657	54.37259820015	110
4	657	54.37259820015	111
4	685	55.700748520392	112
4	685	55.700748520392	113
4	685	55.700748520392	114
4	685	55.700748520392	115
4	705	57.096899642225	116
4	705	57.096899642225	117
4	705	57.096899642225	118
4	705	57.096899642225	119
4	731	58.801968639561	120
4	731	58.801968639561	121
4	731	58.801968639561	122
4	731	58.801968639561	123
4	747	60.403154320506	124
4	747	60.403154320506	125
4	747	60.403154320506	126
4	747	60.403154320506	127
4	778	61.79781290556	128
4	778	61.79781290556	129
4	778	61.79781290556	130
4	778	61.79781290556	131
4	793	63.672354863332	132
4	793	63.672354863332	133
4	793	63.672354863332	134
4	793	63.672354863332	135
4	824	68.187512464595	136
4	824	68.187512464595	137
4	824	68.187512464595	138
4	824	68.187512464595	139
4	844	69.826888446709	140
4	844	69.826888446709	141
4	844	69.826888446709	142
4	844	69.826888446709	143
4	877	71.289826362872	144
4	877	71.289826362872	145
4	877	71.289826362872	146
4	877	71.289826362872	147
4	893	74.933947768656	148
4	893	74.933947768656	149
4	893	74.933947768656	150
4	893	74.933947768656	151
4	917	76.430805906787	152
4	917	76.430805906787	153
4	917	76.430805906787	154
4	917	76.430805906787	155
4	950	77.517763366504	156
4	950	77.517763366504	157
4	950	77.517763366504	158
4	950	77.517763366504	159
4	969	79.483797837618	160
4	969	79.483797837618	161
4	969	79.483797837618	162
4	969	79.483797837618	163
4	989	81.464000167815	164
4	989	81.464000167815	165
4	989	81.464000167815	166
4	989	81.464000167815	167
4	1011	83.270773417056	168
4	1011	83.270773417056	169
4	1011	83.270773417056	170
4	1011	83.270773417056	171
4	1031	85.214835365028	172
4	1031	85.214835365028	173
4	1031	85.214835365028	174
4	1031	85.214835365028	175
4	1052	86.800593549762	176
4	1052	86.800593549762	177
4	1052	86.800593549762	178
4	1052	86.800593549762	179
4	1078	88.300103161854	180
4	1078	88.300103161854	181
4	1078	88.300103161854	182
4	1078	88.300103161854	183
4	1098	89.961677460716	184
4	1098	89.961677460716	185
4	1098	89.961677460716	186
4	1098	89.961677460716	187
4	1120	91.107416923831	188
4	1120	91.107416923831	189
4	1120	91.107416923831	190
4	1120	91.107416923831	191
4	1140	92.487912948683	192
4	1140	92.487912948683	193
4	1140	92.487912948683	194
4	1140	92.487912948683	195
4	1160	95.129275877737	196
4	1160	95.129275877737	197
4	1160	95.129275877737	198
4	1160	95.129275877737	199
4	1187	99.672854898433	200
4	1187	99.672854898433	201
4	1187	99.672854898433	202
4	1187	99.672854898433	203
4	1208	100.807052696923	204
4	1208	100.807052696923	205
4	1208	100.807052696923	206
4	1208	100.807052696923	207
4	1231	103.694438654448	208
4	1231	103.694438654448	209
4	1231	103.694438654448	210
4	1231	103.694438654448	211
4	1258	108.442313788159	212
4	1258	108.442313788159	213
4	1258	108.442313788159	214
4	1258	108.442313788159	215
4	1285	109.566806375574	216
4	1285	109.566806375574	217
4	1285	109.566806375574	218
4	1285	109.566806375574	219
4	1304	110.686747671955	220
4	1304	110.686747671955	221
4	1304	110.686747671955	222
4	1304	110.686747671955	223
4	1328	112.403211935989	224
4	1328	112.403211935989	225
4	1328	112.403211935989	226
4	1328	112.403211935989	227
4	1349	115.729184547019	228
4	1349	115.729184547019	229
4	1349	115.729184547019	230
4	1349	115.729184547019	231
4	1378	117.688901379119	232
4	1378	117.688901379119	233
4	1378	117.688901379119	234
4	1378	117.688901379119	235
4	1396	120.116963100391	236
4	1396	120.116963100391	237
4	1396	120.116963100391	238
4	1396	120.116963100391	239
4	1420	121.263264451462	240
4	1420	121.263264451462	241
4	1420	121.263264451462	242
4	1420	121.263264451462	243
4	1443	122.5032173588	244
4	1443	122.5032173588	245
4	1443	122.5032173588	246
4	1443	122.5032173588	247
4	1470	126.08642286327	248
4	1470	126.08642286327	249
4	1470	126.08642286327	250
4	1470	126.08642286327	251
4	1492	128.919542519968	252
4	1492	128.919542519968	253
4	1492	128.919542519968	254
4	1492	128.919542519968	255
4	1519	130.705640766372	256
4	1519	130.705640766372	257
4	1519	130.705640766372	258
4	1519	130.705640766372	259
4	1539	132.261047384191	260
4	1539	132.261047384191	261
4	1539	132.261047384191	262
4	1539	132.261047384191	263
4	1562	134.148119854316	264
4	1562	134.148119854316	265
4	1562	134.148119854316	266
4	1562	134.148119854316	267
4	1593	137.303705531023	268
4	1593	137.303705531023	269
4	1593	137.303705531023	270
4	1593	137.303705531023	271
4	1627	139.525798283944	272
4	1627	139.525798283944	273
4	1627	139.525798283944	274
4	1627	139.525798283944	275
4	1639	141.054226936112	276
4	1639	141.054226936112	277
4	1639	141.054226936112	278
4	1639	141.054226936112	279
4	1662	142.171509821699	280
4	1662	142.171509821699	281
4	1662	142.171509821699	282
4	1662	142.171509821699	283
4	1687	145.941999518769	284
4	1687	145.941999518769	285
4	1687	145.941999518769	286
4	1687	145.941999518769	287
4	1713	149.427360993981	288
4	1713	149.427360993981	289
4	1713	149.427360993981	290
4	1713	149.427360993981	291
4	1735	150.426021843876	292
4	1735	150.426021843876	293
4	1735	150.426021843876	294
4	1735	150.426021843876	295
4	1759	151.654293103103	296
4	1759	151.654293103103	297
4	1759	151.654293103103	298
4	1759	151.654293103103	299
4	1785	153.541906280511	300
4	1785	153.541906280511	301
4	1785	153.541906280511	302
4	1785	153.541906280511	303
4	1804	155.081579833683	304
4	1804	155.081579833683	305
4	1804	155.081579833683	306
4	1804	155.081579833683	307
4	1830	156.201980694107	308
4	1830	156.201980694107	309
4	1830	156.201980694107	310
4	1830	156.201980694107	311
4	1854	157.868460452532	312
4	1854	157.868460452532	313
4	1854	157.868460452532	314
4	1854	157.868460452532	315
4	1885	160.725015204724	316
4	1885	160.725015204724	317
4	1885	160.725015204724	318
4	1885	160.725015204724	319
4	1911	164.388048703521	320
4	1911	164.388048703521	321
4	1911	164.388048703521	322
4	1911	164.388048703521	323
4	1932	166.016790872264	324
4	1932	166.016790872264	325
4	1932	166.016790872264	326
4	1932	166.016790872264	327
4	1959	167.085106713398	328
4	1959	167.085106713398	329
4	1959	167.085106713398	330
4	1959	167.085106713398	331
4	1985	168.130351370564	332
4	1985	168.130351370564	333
4	1985	168.130351370564	334
4	1985	168.130351370564	335
4	2000	169.977857833355	336
4	2000	169.977857833355	337
4	2000	169.977857833355	338
4	2000	169.977857833355	339
4	2024	171.147836681098	340
4	2024	171.147836681098	341
4	2024	171.147836681098	342
4	2024	171.147836681098	343
4	2051	173.914970720271	344
4	2051	173.914970720271	345
4	2051	173.914970720271	346
4	2051	173.914970720271	347
4	2071	175.172672095591	348
4	2071	175.172672095591	349
4	2071	175.172672095591	350
4	2071	175.172672095591	351
4	2096	176.945954988275	352
4	2096	176.945954988275	353
4	2096	176.945954988275	354
4	2096	176.945954988275	355
4	2118	178.636307806257	356
4	2118	178.636307806257	357
4	2118	178.636307806257	358
4	2118	178.636307806257	359
4	2145	180.124674514512	360
4	2145	180.124674514512	361
4	2145	180.124674514512	362
4	2145	180.124674514512	363
4	2163	181.307746508331	364
4	2163	181.307746508331	365
4	2163	181.307746508331	366
4	2163	181.307746508331	367
4	2190	182.675340436879	368
4	2190	182.675340436879	369
4	2190	182.675340436879	370
4	2190	182.675340436879	371
4	2213	184.339510630975	372
4	2213	184.339510630975	373
4	2213	184.339510630975	374
4	2213	184.339510630975	375
4	2233	186.161557526113	376
4	2233	186.161557526113	377
4	2233	186.161557526113	378
4	2233	186.161557526113	379
4	2258	189.540210902842	380
4	2258	189.540210902842	381
4	2258	189.540210902842	382
4	2258	189.540210902842	383
4	2281	191.539459000262	384
4	2281	191.539459000262	385
4	2281	191.539459000262	386
4	2281	191.539459000262	387
4	2314	193.525919177408	388
4	2314	193.525919177408	389
4	2314	193.525919177408	390
4	2314	193.525919177408	391
4	2337	195.297590053425	392
4	2337	195.297590053425	393
4	2337	195.297590053425	394
4	2337	195.297590053425	395
4	2349	196.700135306967	396
4	2349	196.700135306967	397
4	2349	196.700135306967	398
4	2349	196.700135306967	399
4	2379	200.224651816974	400
4	2379	200.224651816974	401
4	2379	200.224651816974	402
4	2379	200.224651816974	403
4	2402	202.063941209646	404
4	2402	202.063941209646	405
4	2402	202.063941209646	406
4	2402	202.063941209646	407
4	2428	205.094219702475	408
4	2428	205.094219702475	409
4	2428	205.094219702475	410
4	2428	205.094219702475	411
4	2447	206.272431711103	412
4	2447	206.272431711103	413
4	2447	206.272431711103	414
4	2447	206.272431711103	415
4	2478	207.306297462102	416
4	2478	207.306297462102	417
4	2478	207.306297462102	418
4	2478	207.306297462102	419
4	2499	210.421356246383	420
4	2499	210.421356246383	421
4	2499	210.421356246383	422
4	2499	210.421356246383	423
4	2518	212.233469881865	424
4	2518	212.233469881865	425
4	2518	212.233469881865	426
4	2518	212.233469881865	427
4	2541	213.831103852023	428
4	2541	213.831103852023	429
4	2541	213.831103852023	430
4	2541	213.831103852023	431
4	2575	217.515549604475	432
4	2575	217.515549604475	433
4	2575	217.515549604475	434
4	2575	217.515549604475	435
4	2597	218.999237079722	436
4	2597	218.999237079722	437
4	2597	218.999237079722	438
4	2597	218.999237079722	439
4	2620	220.88567159105	440
4	2620	220.88567159105	441
4	2620	220.88567159105	442
4	2620	220.88567159105	443
4	2643	222.184974600939	444
4	2643	222.184974600939	445
4	2643	222.184974600939	446
4	2643	222.184974600939	447
4	2665	223.86352049933	448
4	2665	223.86352049933	449
4	2665	223.86352049933	450
4	2665	223.86352049933	451
4	2691	226.497656151449	452
4	2691	226.497656151449	453
4	2691	226.497656151449	454
4	2691	226.497656151449	455
4	2713	227.889864298096	456
4	2713	227.889864298096	457
4	2713	227.889864298096	458
4	2713	227.889864298096	459
4	2739	229.86387670427	460
4	2739	229.86387670427	461
4	2739	229.86387670427	462
4	2739	229.86387670427	463
4	2757	231.012428275611	464
4	2757	231.012428275611	465
4	2757	231.012428275611	466
4	2757	231.012428275611	467
4	2779	232.033591216996	468
4	2779	232.033591216996	469
4	2779	232.033591216996	470
4	2779	232.033591216996	471
4	2802	233.351654337298	472
4	2802	233.351654337298	473
4	2802	233.351654337298	474
4	2802	233.351654337298	475
4	2825	234.881526077552	476
4	2825	234.881526077552	477
4	2825	234.881526077552	478
4	2825	234.881526077552	479
4	2854	235.974137122194	480
4	2854	235.974137122194	481
4	2854	235.974137122194	482
4	2854	235.974137122194	483
4	2871	237.758911490988	484
4	2871	237.758911490988	485
4	2871	237.758911490988	486
4	2871	237.758911490988	487
4	2896	238.932933344872	488
4	2896	238.932933344872	489
4	2896	238.932933344872	490
4	2896	238.932933344872	491
5	20	0.240512463835	0
5	20	0.240512463835	1
5	20	0.240512463835	2
5	43	2.191100901636	3
5	43	2.191100901636	4
5	43	2.191100901636	5
5	66	6.889607333838	6
5	66	6.889607333838	7
5	66	6.889607333838	8
5	90	7.954930388056	9
5	90	7.954930388056	10
5	90	7.954930388056	11
5	116	9.608418280149	12
5	116	9.608418280149	13
5	116	9.608418280149	14
5	136	10.852261049973	15
5	136	10.852261049973	16
5	136	10.852261049973	17
5	166	14.599110754278	18
5	166	14.599110754278	19
5	166	14.599110754278	20
5	207	17.933362286003	21
5	207	17.933362286003	22
5	207	17.933362286003	23
5	234	19.465281181531	24
5	234	19.465281181531	25
5	234	19.465281181531	26
5	259	22.867167037953	27
5	259	22.867167037953	28
5	259	22.867167037953	29
5	278	24.330848114778	30
5	278	24.330848114778	31
5	278	24.330848114778	32
5	305	25.891299020231	33
5	305	25.891299020231	34
5	305	25.891299020231	35
5	328	27.772022887011	36
5	328	27.772022887011	37
5	328	27.772022887011	38
5	344	28.984251713931	39
5	344	28.984251713931	40
5	344	28.984251713931	41
5	378	32.823254341381	42
5	378	32.823254341381	43
5	378	32.823254341381	44
5	399	35.2824328164	45
5	399	35.2824328164	46
5	399	35.2824328164	47
5	423	36.900582460709	48
5	423	36.900582460709	49
5	423	36.900582460709	50
5	448	38.187294992018	51
5	448	38.187294992018	52
5	448	38.187294992018	53
5	469	40.469265367994	54
5	469	40.469265367994	55
5	469	40.469265367994	56
5	510	43.774518966117	57
5	510	43.774518966117	58
5	510	43.774518966117	59
5	533	45.738615680659	60
5	533	45.738615680659	61
5	533	45.738615680659	62
5	549	46.756030195252	63
5	549	46.756030195252	64
5	549	46.756030195252	65
5	572	47.801471864309	66
5	572	47.801471864309	67
5	572	47.801471864309	68
5	598	49.231851100746	69
5	598	49.231851100746	70
5	598	49.231851100746	71
5	625	51.214365952292	72
5	625	51.214365952292	73
5	625	51.214365952292	74
5	667	54.394667993976	75
5	667	54.394667993976	76
5	667	54.394667993976	77
5	690	55.713554683728	78
5	690	55.713554683728	79
5	690	55.713554683728	80
5	709	57.104726344058	81
5	709	57.104726344058	82
5	709	57.104726344058	83
5	736	58.815593859673	84
5	736	58.815593859673	85
5	736	58.815593859673	86
5	753	60.418472547102	87
5	753	60.418472547102	88
5	753	60.418472547102	89
5	774	61.782421801032	90
5	774	61.782421801032	91
5	774	61.782421801032	92
5	805	63.697821746945	93
5	805	63.697821746945	94
5	805	63.697821746945	95
5	828	68.192067616232	96
5	828	68.192067616232	97
5	828	68.192067616232	98
5	851	69.837046280706	99
5	851	69.837046280706	100
5	851	69.837046280706	101
5	873	71.278590946363	102
5	873	71.278590946363	103
5	873	71.278590946363	104
5	901	74.950122610151	105
5	901	74.950122610151	106
5	901	74.950122610151	107
5	926	76.450353158883	108
5	926	76.450353158883	109
5	926	76.450353158883	110
5	943	77.501909928618	111
5	943	77.501909928618	112
5	943	77.501909928618	113
5	970	79.489484743894	114
5	970	79.489484743894	115
5	970	79.489484743894	116
5	993	81.470609126826	117
5	993	81.470609126826	118
5	993	81.470609126826	119
5	1016	83.286925909126	120
5	1016	83.286925909126	121
5	1016	83.286925909126	122
5	1036	85.229557435491	123
5	1036	85.229557435491	124
5	1036	85.229557435491	125
5	1060	86.827095662302	126
5	1060	86.827095662302	127
5	1060	86.827095662302	128
5	1082	88.309033988504	129
5	1082	88.309033988504	130
5	1082	88.309033988504	131
5	1102	89.969154485235	132
5	1102	89.969154485235	133
5	1102	89.969154485235	134
5	1167	95.139943926527	135
5	1167	95.139943926527	136
5	1167	95.139943926527	137
5	1214	100.810696314685	138
5	1214	100.810696314685	139
5	1214	100.810696314685	140
5	1237	103.705244587115	141
5	1237	103.705244587115	142
5	1237	103.705244587115	143
5	1270	108.502656179783	144
5	1270	108.502656179783	145
5	1270	108.502656179783	146
5	1293	109.576868009182	147
5	1293	109.576868009182	148
5	1293	109.576868009182	149
5	1313	110.703742721817	150
5	1313	110.703742721817	151
5	1313	110.703742721817	152
5	1356	115.741137566674	153
5	1356	115.741137566674	154
5	1356	115.741137566674	155
5	1379	117.69071356176	156
5	1379	117.69071356176	157
5	1379	117.69071356176	158
5	1406	120.137399961333	159
5	1406	120.137399961333	160
5	1406	120.137399961333	161
5	1431	121.276977112114	162
5	1431	121.276977112114	163
5	1431	121.276977112114	164
5	1447	122.506491120961	165
5	1447	122.506491120961	166
5	1447	122.506491120961	167
5	1479	126.125325401343	168
5	1479	126.125325401343	169
5	1479	126.125325401343	170
5	1504	128.961965217187	171
5	1504	128.961965217187	172
5	1504	128.961965217187	173
5	1527	130.724064225244	174
5	1527	130.724064225244	175
5	1527	130.724064225244	176
5	1548	132.274701926848	177
5	1548	132.274701926848	178
5	1548	132.274701926848	179
5	1570	134.16185674201	180
5	1570	134.16185674201	181
5	1570	134.16185674201	182
5	1598	137.320361142943	183
5	1598	137.320361142943	184
5	1598	137.320361142943	185
5	1621	139.51525969891	186
5	1621	139.51525969891	187
5	1621	139.51525969891	188
5	1649	141.080318007658	189
5	1649	141.080318007658	190
5	1649	141.080318007658	191
5	1671	142.192117434088	192
5	1671	142.192117434088	193
5	1671	142.192117434088	194
5	1699	145.957891203183	195
5	1699	145.957891203183	196
5	1699	145.957891203183	197
5	1717	149.433870035841	198
5	1717	149.433870035841	199
5	1717	149.433870035841	200
5	1747	150.458553510786	201
5	1747	150.458553510786	202
5	1747	150.458553510786	203
5	1770	151.674839293695	204
5	1770	151.674839293695	205
5	1770	151.674839293695	206
5	1786	153.546529442003	207
5	1786	153.546529442003	208
5	1786	153.546529442003	209
5	1814	155.100930139037	210
5	1814	155.100930139037	211
5	1814	155.100930139037	212
5	1839	156.228390084833	213
5	1839	156.228390084833	214
5	1839	156.228390084833	215
5	1858	157.871285150359	216
5	1858	157.871285150359	217
5	1858	157.871285150359	218
5	1895	160.736152842435	219
5	1895	160.736152842435	220
5	1895	160.736152842435	221
5	1920	164.41350753422	222
5	1920	164.41350753422	223
5	1920	164.41350753422	224
5	1939	166.040262382219	225
5	1939	166.040262382219	226
5	1939	166.040262382219	227
5	1966	167.103838437328	228
5	1966	167.103838437328	229
5	1966	167.103838437328	230
5	1984	168.128959543292	231
5	1984	168.128959543292	232
5	1984	168.128959543292	233
5	2012	170.021004156023	234
5	2012	170.021004156023	235
5	2012	170.021004156023	236
5	2028	171.155113758985	237
5	2028	171.155113758985	238
5	2028	171.155113758985	239
5	2057	173.928953317868	240
5	2057	173.928953317868	241
5	2057	173.928953317868	242
5	2083	175.200820298993	243
5	2083	175.200820298993	244
5	2083	175.200820298993	245
5	2106	176.970439091234	246
5	2106	176.970439091234	247
5	2106	176.970439091234	248
5	2125	178.647766147533	249
5	2125	178.647766147533	250
5	2125	178.647766147533	251
5	2146	180.126576892865	252
5	2146	180.126576892865	253
5	2146	180.126576892865	254
5	2175	181.361053540493	255
5	2175	181.361053540493	256
5	2175	181.361053540493	257
5	2191	182.676271494387	258
5	2191	182.676271494387	259
5	2191	182.676271494387	260
5	2221	184.353191949864	261
5	2221	184.353191949864	262
5	2221	184.353191949864	263
5	2241	186.181964180406	264
5	2241	186.181964180406	265
5	2241	186.181964180406	266
5	2265	189.552777876518	267
5	2265	189.552777876518	268
5	2265	189.552777876518	269
5	2289	191.553339137908	270
5	2289	191.553339137908	271
5	2289	191.553339137908	272
5	2310	193.498996086756	273
5	2310	193.498996086756	274
5	2310	193.498996086756	275
5	2331	195.286784876497	276
5	2331	195.286784876497	277
5	2331	195.286784876497	278
5	2355	196.713010963283	279
5	2355	196.713010963283	280
5	2355	196.713010963283	281
5	2389	200.2459156224	282
5	2389	200.2459156224	283
5	2389	200.2459156224	284
5	2411	202.112707994961	285
5	2411	202.112707994961	286
5	2411	202.112707994961	287
5	2432	205.101705268208	288
5	2432	205.101705268208	289
5	2432	205.101705268208	290
5	2453	206.289582351897	291
5	2453	206.289582351897	292
5	2453	206.289582351897	293
5	2477	207.303600726444	294
5	2477	207.303600726444	295
5	2477	207.303600726444	296
5	2507	210.439940541828	297
5	2507	210.439940541828	298
5	2507	210.439940541828	299
5	2527	212.262292219366	300
5	2527	212.262292219366	301
5	2527	212.262292219366	302
5	2553	213.846588210806	303
5	2553	213.846588210806	304
5	2553	213.846588210806	305
5	2579	217.523638511826	306
5	2579	217.523638511826	307
5	2579	217.523638511826	308
5	2606	219.019157830146	309
5	2606	219.019157830146	310
5	2606	219.019157830146	311
5	2624	220.893522929745	312
5	2624	220.893522929745	313
5	2624	220.893522929745	314
5	2647	222.19056971622	315
5	2647	222.19056971622	316
5	2647	222.19056971622	317
5	2670	223.899131080935	318
5	2670	223.899131080935	319
5	2670	223.899131080935	320
5	2702	226.532146499067	321
5	2702	226.532146499067	322
5	2702	226.532146499067	323
5	2719	227.902803055507	324
5	2719	227.902803055507	325
5	2719	227.902803055507	326
5	2738	229.858072512318	327
5	2738	229.858072512318	328
5	2738	229.858072512318	329
5	2764	231.024634063337	330
5	2764	231.024634063337	331
5	2764	231.024634063337	332
5	2787	232.05322655532	333
5	2787	232.05322655532	334
5	2787	232.05322655532	335
5	2808	233.363981451749	336
5	2808	233.363981451749	337
5	2808	233.363981451749	338
5	2837	234.905944474974	339
5	2837	234.905944474974	340
5	2837	234.905944474974	341
5	2852	235.967730211534	342
5	2852	235.967730211534	343
5	2852	235.967730211534	344
5	2880	237.781217806086	345
5	2880	237.781217806086	346
5	2880	237.781217806086	347
5	2906	238.97498676626	348
5	2906	238.97498676626	349
5	2906	238.97498676626	350
6	23	0.250512463835	0
6	46	2.201100901636	1
6	96	7.964930388056	2
6	119	9.618418280149	3
6	142	10.862261049973	4
6	172	14.609110754278	5
6	214	17.943362286003	6
6	262	22.877167037953	7
6	285	24.340848114778	8
6	331	27.782022887011	9
6	384	32.833254341381	10
6	404	35.2924328164	11
6	432	36.910582460709	12
6	455	38.197294992018	13
6	513	43.784518966117	14
6	536	45.748615680659	15
6	553	46.766030195252	16
6	577	47.811471864309	17
6	605	49.241851100746	18
6	670	54.404667993976	19
6	716	57.114726344058	20
6	739	58.825593859673	21
6	760	60.428472547102	22
6	777	61.792421801032	23
6	808	63.707821746945	24
6	835	68.202067616232	25
6	855	69.847046280706	26
6	876	71.288590946363	27
6	905	74.960122610151	28
6	931	76.460353158883	29
6	947	77.511909928618	30
6	977	79.499484743894	31
6	1000	81.480609126826	32
6	1019	83.296925909126	33
6	1039	85.239557435491	34
6	1064	86.837095662302	35
6	1089	88.319033988504	36
6	1175	95.149943926527	37
6	1221	100.820696314685	38
6	1273	108.512656179783	39
6	1319	110.713742721817	40
6	1359	115.751137566674	41
6	1386	117.70071356176	42
6	1411	120.147399961333	43
6	1434	121.286977112114	44
6	1482	126.135325401343	45
6	1507	128.971965217187	46
6	1530	130.734064225244	47
6	1553	132.284701926848	48
6	1601	137.330361142943	49
6	1626	139.52525969891	50
6	1654	141.090318007658	51
6	1674	142.202117434088	52
6	1702	145.967891203183	53
6	1724	149.443870035841	54
6	1750	150.468553510786	55
6	1773	151.684839293695	56
6	1794	153.556529442003	57
6	1819	155.110930139037	58
6	1842	156.238390084833	59
6	1865	157.881285150359	60
6	1923	164.42350753422	61
6	1942	166.050262382219	62
6	1969	167.113838437328	63
6	1988	168.138959543292	64
6	2015	170.031004156023	65
6	2063	173.938953317868	66
6	2086	175.210820298993	67
6	2129	178.657766147533	68
6	2155	180.136576892865	69
6	2178	181.371053540493	70
6	2198	182.686271494387	71
6	2224	184.363191949864	72
6	2268	189.562777876518	73
6	2295	191.563339137908	74
6	2313	193.508996086756	75
6	2336	195.296784876497	76
6	2360	196.723010963283	77
6	2394	200.2559156224	78
6	2414	202.122707994961	79
6	2439	205.111705268208	80
6	2460	206.299582351897	81
6	2510	210.449940541828	82
6	2533	212.272292219366	83
6	2556	213.856588210806	84
6	2588	217.533638511826	85
6	2611	219.029157830146	86
6	2632	220.903522929745	87
6	2655	222.20056971622	88
6	2705	226.542146499067	89
6	2725	227.912803055507	90
6	2744	229.868072512318	91
6	2767	231.034634063337	92
6	2790	232.06322655532	93
6	2813	233.373981451749	94
6	2840	234.915944474974	95
6	2857	235.977730211534	96
6	2886	237.791217806086	97
6	2909	238.98498676626	98

