version 2
run General-0-20230921-21:39:55-6137
attr configname General
attr datetime 20230921-21:39:55
attr experiment General
attr inifile omnetpp.ini
attr iterationvars ""
attr iterationvarsf ""
attr measurement ""
attr network Network2
attr processid 6137
attr repetition 0
attr replication #0
attr resultdir results
attr runnumber 0
attr seedset 0
param Network2.node[*].transmissionTime "uniform(1s, 2s)"
param Network2.node[*].delayTime "uniform(0.01s, 0.2s)"
param Network2.node[*].processingTime exponential(0.01s)
param Network2.node[*].lossProbability 0.2

vector 0 Network2.node[0] txVector ETV
vector 1 Network2.node[1] txVector ETV
vector 2 Network2.node[3] txVector ETV
vector 3 Network2.node[2] txVector ETV
vector 4 Network2.node[6] txVector ETV
vector 5 Network2.node[4] txVector ETV
vector 6 Network2.node[5] rxVector ETV
0	1	0.114274565438	0
0	24	1.707119181827	1
0	47	3.275163745582	2
0	49	4.954043279244	3
0	72	6.674675930832	4
0	95	8.286771653295	5
0	118	10.037457792163	6
0	141	11.281883380218	7
0	164	13.160076848772	8
0	187	14.224224349792	9
0	210	16.065610471955	10
0	233	17.641767807845	11
0	256	18.891564082894	12
0	279	20.551737621268	13
0	302	21.773000303963	14
0	304	23.641126364544	15
0	327	24.803619295899	16
0	350	26.169115395593	17
0	373	27.393040078301	18
0	396	29.257321520783	19
0	398	30.315350683248	20
0	421	31.749767312156	21
0	444	33.219264499685	22
0	467	34.492806532961	23
0	490	36.20439035453	24
0	510	37.60045005831	25
0	533	38.683872493059	26
0	556	40.387367278413	27
0	579	42.017815213959	28
0	602	43.287294650293	29
0	620	45.061341986601	30
0	643	46.831922735396	31
0	645	48.423857899225	32
0	668	49.900335103116	33
0	691	51.679030499962	34
0	714	53.148528805311	35
0	737	54.277389373007	36
0	760	55.703695250983	37
0	783	57.561417894513	38
0	806	59.008796193945	39
0	808	60.954097727389	40
0	810	62.82358626051	41
0	812	64.277748659562	42
0	814	65.604449546273	43
0	837	66.837193678442	44
0	860	68.818833358662	45
0	883	70.060251976905	46
0	906	71.423413229018	47
0	929	72.529319387471	48
0	931	74.324854134425	49
0	954	75.828787743888	50
0	956	77.796753314865	51
0	979	79.791154102964	52
0	1002	81.770727355575	53
0	1025	83.143762219075	54
0	1048	84.530589370133	55
0	1071	85.538473472774	56
0	1094	86.637889865629	57
0	1117	88.451568514185	58
0	1140	90.338833349833	59
0	1142	92.25861616091	60
0	1144	93.294649983134	61
0	1167	94.469421990525	62
0	1186	95.830727667391	63
0	1209	97.359667595552	64
0	1232	98.668918883504	65
0	1255	100.259945780581	66
0	1278	101.532175144956	67
0	1301	103.277573217249	68
0	1311	104.896756013699	69
0	1334	106.167869407294	70
0	1357	107.51258752945	71
0	1380	109.345903339639	72
0	1403	111.213070496527	73
0	1405	112.520446615602	74
0	1407	114.057725644513	75
0	1430	115.332300694502	76
0	1453	116.531896833173	77
0	1476	117.724614805152	78
0	1499	118.841995101498	79
0	1522	120.644687239157	80
0	1545	122.103190408863	81
0	1547	123.876225387521	82
0	1566	125.6228096749	83
0	1589	127.44084298013	84
0	1612	129.051829488093	85
0	1635	131.00616330079	86
0	1658	132.37378947491	87
0	1681	133.53293571396	88
0	1683	134.989623308025	89
0	1685	136.814421016566	90
0	1708	138.483026859426	91
0	1710	140.402534270269	92
0	1733	142.112990024575	93
0	1756	143.366615732742	94
0	1779	145.281586497399	95
0	1799	146.644474494812	96
0	1822	148.533089989173	97
0	1845	149.589967251598	98
0	1868	150.641137686168	99
0	1891	152.116726801573	100
0	1914	153.620474615675	101
0	1937	155.142650482785	102
0	1960	156.422764227102	103
0	1962	158.344483296695	104
0	1964	160.149747151957	105
0	1987	161.873688548879	106
0	2010	163.569214090082	107
0	2012	165.448735575966	108
0	2014	166.968816996861	109
0	2037	167.999478045694	110
0	2060	169.230859826395	111
0	2083	170.702317145962	112
0	2106	172.155047642609	113
0	2129	173.411161438405	114
0	2131	175.24340030186	115
0	2133	176.304178458016	116
0	2152	178.209005162429	117
0	2175	179.473654756166	118
0	2198	181.398494572921	119
0	2221	182.950933631121	120
0	2244	184.846446569155	121
0	2263	186.808841641371	122
0	2286	188.221275190667	123
0	2309	189.905001637137	124
0	2329	191.837250834641	125
0	2331	192.871022408905	126
0	2354	193.953898577795	127
0	2377	195.2176662647	128
0	2400	196.936647359358	129
0	2423	198.245175313979	130
0	2446	200.146183225402	131
0	2465	201.264798741398	132
0	2488	202.403932030622	133
0	2511	204.209394471098	134
0	2531	206.00493985655	135
0	2554	207.935368239956	136
0	2573	209.23601940212	137
0	2596	211.172864090029	138
0	2619	213.168935361162	139
0	2642	214.211551291479	140
0	2644	215.248680897366	141
0	2667	216.26293240728	142
0	2690	217.776117125369	143
0	2713	219.557309967774	144
0	2736	221.282626199844	145
0	2759	223.075907869572	146
0	2782	224.245842856197	147
0	2805	225.801976035424	148
0	2828	226.82430759918	149
0	2844	228.083907831535	150
0	2867	229.218081468093	151
0	2890	231.163500418729	152
0	2913	232.267488493427	153
0	2936	234.216858390794	154
0	2959	235.888386088499	155
0	2961	237.088265173678	156
0	2984	238.663404117646	157
1	3	0.142870607559	0
1	3	0.142870607559	1
1	3	0.142870607559	2
1	3	0.142870607559	3
1	26	1.743101722685	4
1	26	1.743101722685	5
1	26	1.743101722685	6
1	26	1.743101722685	7
1	51	4.972766491194	8
1	51	4.972766491194	9
1	51	4.972766491194	10
1	51	4.972766491194	11
1	74	6.694271410606	12
1	74	6.694271410606	13
1	74	6.694271410606	14
1	74	6.694271410606	15
1	97	8.306132268893	16
1	97	8.306132268893	17
1	97	8.306132268893	18
1	97	8.306132268893	19
1	120	10.049189066724	20
1	120	10.049189066724	21
1	120	10.049189066724	22
1	120	10.049189066724	23
1	143	11.299009216151	24
1	143	11.299009216151	25
1	143	11.299009216151	26
1	143	11.299009216151	27
1	166	13.181868744043	28
1	166	13.181868744043	29
1	166	13.181868744043	30
1	166	13.181868744043	31
1	189	14.23729952703	32
1	189	14.23729952703	33
1	189	14.23729952703	34
1	189	14.23729952703	35
1	212	16.084576380663	36
1	212	16.084576380663	37
1	212	16.084576380663	38
1	212	16.084576380663	39
1	235	17.655525196269	40
1	235	17.655525196269	41
1	235	17.655525196269	42
1	235	17.655525196269	43
1	258	18.904990079141	44
1	258	18.904990079141	45
1	258	18.904990079141	46
1	258	18.904990079141	47
1	281	20.563260557521	48
1	281	20.563260557521	49
1	281	20.563260557521	50
1	281	20.563260557521	51
1	306	23.660686028783	52
1	306	23.660686028783	53
1	306	23.660686028783	54
1	306	23.660686028783	55
1	329	24.813786973559	56
1	329	24.813786973559	57
1	329	24.813786973559	58
1	329	24.813786973559	59
1	352	26.183351966607	60
1	352	26.183351966607	61
1	352	26.183351966607	62
1	352	26.183351966607	63
1	375	27.416936848939	64
1	375	27.416936848939	65
1	375	27.416936848939	66
1	375	27.416936848939	67
1	400	30.329087381192	68
1	400	30.329087381192	69
1	400	30.329087381192	70
1	400	30.329087381192	71
1	423	31.765855641293	72
1	423	31.765855641293	73
1	423	31.765855641293	74
1	423	31.765855641293	75
1	446	33.245261694103	76
1	446	33.245261694103	77
1	446	33.245261694103	78
1	446	33.245261694103	79
1	469	34.504475279373	80
1	469	34.504475279373	81
1	469	34.504475279373	82
1	469	34.504475279373	83
1	492	36.222724136936	84
1	492	36.222724136936	85
1	492	36.222724136936	86
1	492	36.222724136936	87
1	512	37.618483975937	88
1	512	37.618483975937	89
1	512	37.618483975937	90
1	512	37.618483975937	91
1	535	38.69587691501	92
1	535	38.69587691501	93
1	535	38.69587691501	94
1	535	38.69587691501	95
1	558	40.418104893044	96
1	558	40.418104893044	97
1	558	40.418104893044	98
1	558	40.418104893044	99
1	581	42.033099886242	100
1	581	42.033099886242	101
1	581	42.033099886242	102
1	581	42.033099886242	103
1	604	43.301346479116	104
1	604	43.301346479116	105
1	604	43.301346479116	106
1	604	43.301346479116	107
1	622	45.072931318398	108
1	622	45.072931318398	109
1	622	45.072931318398	110
1	622	45.072931318398	111
1	647	48.440550927945	112
1	647	48.440550927945	113
1	647	48.440550927945	114
1	647	48.440550927945	115
1	670	49.925359231053	116
1	670	49.925359231053	117
1	670	49.925359231053	118
1	670	49.925359231053	119
1	693	51.710461496966	120
1	693	51.710461496966	121
1	693	51.710461496966	122
1	693	51.710461496966	123
1	716	53.16351572864	124
1	716	53.16351572864	125
1	716	53.16351572864	126
1	716	53.16351572864	127
1	739	54.29379910846	128
1	739	54.29379910846	129
1	739	54.29379910846	130
1	739	54.29379910846	131
1	762	55.719805826596	132
1	762	55.719805826596	133
1	762	55.719805826596	134
1	762	55.719805826596	135
1	785	57.584426268788	136
1	785	57.584426268788	137
1	785	57.584426268788	138
1	785	57.584426268788	139
1	816	65.623980771656	140
1	816	65.623980771656	141
1	816	65.623980771656	142
1	816	65.623980771656	143
1	839	66.849999437704	144
1	839	66.849999437704	145
1	839	66.849999437704	146
1	839	66.849999437704	147
1	862	68.839695391774	148
1	862	68.839695391774	149
1	862	68.839695391774	150
1	862	68.839695391774	151
1	885	70.075319209044	152
1	885	70.075319209044	153
1	885	70.075319209044	154
1	885	70.075319209044	155
1	908	71.46356291174	156
1	908	71.46356291174	157
1	908	71.46356291174	158
1	908	71.46356291174	159
1	933	74.33836734724	160
1	933	74.33836734724	161
1	933	74.33836734724	162
1	933	74.33836734724	163
1	958	77.812764861329	164
1	958	77.812764861329	165
1	958	77.812764861329	166
1	958	77.812764861329	167
1	981	79.80276140337	168
1	981	79.80276140337	169
1	981	79.80276140337	170
1	981	79.80276140337	171
1	1004	81.788171138189	172
1	1004	81.788171138189	173
1	1004	81.788171138189	174
1	1004	81.788171138189	175
1	1027	83.161314337253	176
1	1027	83.161314337253	177
1	1027	83.161314337253	178
1	1027	83.161314337253	179
1	1050	84.545252340397	180
1	1050	84.545252340397	181
1	1050	84.545252340397	182
1	1050	84.545252340397	183
1	1073	85.55189521969	184
1	1073	85.55189521969	185
1	1073	85.55189521969	186
1	1073	85.55189521969	187
1	1096	86.65501943042	188
1	1096	86.65501943042	189
1	1096	86.65501943042	190
1	1096	86.65501943042	191
1	1119	88.482780058753	192
1	1119	88.482780058753	193
1	1119	88.482780058753	194
1	1119	88.482780058753	195
1	1146	93.309578770818	196
1	1146	93.309578770818	197
1	1146	93.309578770818	198
1	1146	93.309578770818	199
1	1169	94.503612504467	200
1	1169	94.503612504467	201
1	1169	94.503612504467	202
1	1169	94.503612504467	203
1	1188	95.844358138935	204
1	1188	95.844358138935	205
1	1188	95.844358138935	206
1	1188	95.844358138935	207
1	1211	97.374829630101	208
1	1211	97.374829630101	209
1	1211	97.374829630101	210
1	1211	97.374829630101	211
1	1234	98.689682788098	212
1	1234	98.689682788098	213
1	1234	98.689682788098	214
1	1234	98.689682788098	215
1	1257	100.270801988522	216
1	1257	100.270801988522	217
1	1257	100.270801988522	218
1	1257	100.270801988522	219
1	1280	101.561023791098	220
1	1280	101.561023791098	221
1	1280	101.561023791098	222
1	1280	101.561023791098	223
1	1303	103.292393009345	224
1	1303	103.292393009345	225
1	1303	103.292393009345	226
1	1303	103.292393009345	227
1	1313	104.913165167931	228
1	1313	104.913165167931	229
1	1313	104.913165167931	230
1	1313	104.913165167931	231
1	1336	106.190378893901	232
1	1336	106.190378893901	233
1	1336	106.190378893901	234
1	1336	106.190378893901	235
1	1359	107.537539840631	236
1	1359	107.537539840631	237
1	1359	107.537539840631	238
1	1359	107.537539840631	239
1	1382	109.356199587162	240
1	1382	109.356199587162	241
1	1382	109.356199587162	242
1	1382	109.356199587162	243
1	1409	114.067812923476	244
1	1409	114.067812923476	245
1	1409	114.067812923476	246
1	1409	114.067812923476	247
1	1432	115.347974375699	248
1	1432	115.347974375699	249
1	1432	115.347974375699	250
1	1432	115.347974375699	251
1	1455	116.566918412998	252
1	1455	116.566918412998	253
1	1455	116.566918412998	254
1	1455	116.566918412998	255
1	1478	117.736356497363	256
1	1478	117.736356497363	257
1	1478	117.736356497363	258
1	1478	117.736356497363	259
1	1501	118.870096211613	260
1	1501	118.870096211613	261
1	1501	118.870096211613	262
1	1501	118.870096211613	263
1	1524	120.660567677274	264
1	1524	120.660567677274	265
1	1524	120.660567677274	266
1	1524	120.660567677274	267
1	1549	123.89900625046	268
1	1549	123.89900625046	269
1	1549	123.89900625046	270
1	1549	123.89900625046	271
1	1568	125.633890135569	272
1	1568	125.633890135569	273
1	1568	125.633890135569	274
1	1568	125.633890135569	275
1	1591	127.450869786713	276
1	1591	127.450869786713	277
1	1591	127.450869786713	278
1	1591	127.450869786713	279
1	1614	129.066167149988	280
1	1614	129.066167149988	281
1	1614	129.066167149988	282
1	1614	129.066167149988	283
1	1637	131.029117867429	284
1	1637	131.029117867429	285
1	1637	131.029117867429	286
1	1637	131.029117867429	287
1	1660	132.393096210476	288
1	1660	132.393096210476	289
1	1660	132.393096210476	290
1	1660	132.393096210476	291
1	1687	136.832315782514	292
1	1687	136.832315782514	293
1	1687	136.832315782514	294
1	1687	136.832315782514	295
1	1712	140.414482331234	296
1	1712	140.414482331234	297
1	1712	140.414482331234	298
1	1712	140.414482331234	299
1	1735	142.12523409661	300
1	1735	142.12523409661	301
1	1735	142.12523409661	302
1	1735	142.12523409661	303
1	1758	143.38977387506	304
1	1758	143.38977387506	305
1	1758	143.38977387506	306
1	1758	143.38977387506	307
1	1781	145.292049392458	308
1	1781	145.292049392458	309
1	1781	145.292049392458	310
1	1781	145.292049392458	311
1	1801	146.666423776146	312
1	1801	146.666423776146	313
1	1801	146.666423776146	314
1	1801	146.666423776146	315
1	1824	148.582456050471	316
1	1824	148.582456050471	317
1	1824	148.582456050471	318
1	1824	148.582456050471	319
1	1847	149.60106627935	320
1	1847	149.60106627935	321
1	1847	149.60106627935	322
1	1847	149.60106627935	323
1	1870	150.668286917209	324
1	1870	150.668286917209	325
1	1870	150.668286917209	326
1	1870	150.668286917209	327
1	1893	152.131709689745	328
1	1893	152.131709689745	329
1	1893	152.131709689745	330
1	1893	152.131709689745	331
1	1916	153.649689155035	332
1	1916	153.649689155035	333
1	1916	153.649689155035	334
1	1916	153.649689155035	335
1	1939	155.175937741657	336
1	1939	155.175937741657	337
1	1939	155.175937741657	338
1	1939	155.175937741657	339
1	1966	160.167938197391	340
1	1966	160.167938197391	341
1	1966	160.167938197391	342
1	1966	160.167938197391	343
1	1989	161.886307544785	344
1	1989	161.886307544785	345
1	1989	161.886307544785	346
1	1989	161.886307544785	347
1	2016	166.98135835599	348
1	2016	166.98135835599	349
1	2016	166.98135835599	350
1	2016	166.98135835599	351
1	2039	168.016213653599	352
1	2039	168.016213653599	353
1	2039	168.016213653599	354
1	2039	168.016213653599	355
1	2062	169.241565050041	356
1	2062	169.241565050041	357
1	2062	169.241565050041	358
1	2062	169.241565050041	359
1	2085	170.716264143954	360
1	2085	170.716264143954	361
1	2085	170.716264143954	362
1	2085	170.716264143954	363
1	2108	172.182404327104	364
1	2108	172.182404327104	365
1	2108	172.182404327104	366
1	2108	172.182404327104	367
1	2135	176.324711814151	368
1	2135	176.324711814151	369
1	2135	176.324711814151	370
1	2135	176.324711814151	371
1	2154	178.255931899641	372
1	2154	178.255931899641	373
1	2154	178.255931899641	374
1	2154	178.255931899641	375
1	2177	179.486553290522	376
1	2177	179.486553290522	377
1	2177	179.486553290522	378
1	2177	179.486553290522	379
1	2200	181.412003629638	380
1	2200	181.412003629638	381
1	2200	181.412003629638	382
1	2200	181.412003629638	383
1	2223	182.963274201584	384
1	2223	182.963274201584	385
1	2223	182.963274201584	386
1	2223	182.963274201584	387
1	2246	184.857617777546	388
1	2246	184.857617777546	389
1	2246	184.857617777546	390
1	2246	184.857617777546	391
1	2265	186.820636728331	392
1	2265	186.820636728331	393
1	2265	186.820636728331	394
1	2265	186.820636728331	395
1	2288	188.23235601374	396
1	2288	188.23235601374	397
1	2288	188.23235601374	398
1	2288	188.23235601374	399
1	2311	189.930544553331	400
1	2311	189.930544553331	401
1	2311	189.930544553331	402
1	2311	189.930544553331	403
1	2333	192.89553959414	404
1	2333	192.89553959414	405
1	2333	192.89553959414	406
1	2333	192.89553959414	407
1	2356	193.992834977511	408
1	2356	193.992834977511	409
1	2356	193.992834977511	410
1	2356	193.992834977511	411
1	2379	195.231572504713	412
1	2379	195.231572504713	413
1	2379	195.231572504713	414
1	2379	195.231572504713	415
1	2402	196.975152381456	416
1	2402	196.975152381456	417
1	2402	196.975152381456	418
1	2402	196.975152381456	419
1	2425	198.255269508045	420
1	2425	198.255269508045	421
1	2425	198.255269508045	422
1	2425	198.255269508045	423
1	2448	200.18403083159	424
1	2448	200.18403083159	425
1	2448	200.18403083159	426
1	2448	200.18403083159	427
1	2467	201.286886610285	428
1	2467	201.286886610285	429
1	2467	201.286886610285	430
1	2467	201.286886610285	431
1	2490	202.422753531366	432
1	2490	202.422753531366	433
1	2490	202.422753531366	434
1	2490	202.422753531366	435
1	2513	204.243334179114	436
1	2513	204.243334179114	437
1	2513	204.243334179114	438
1	2513	204.243334179114	439
1	2533	206.025251798357	440
1	2533	206.025251798357	441
1	2533	206.025251798357	442
1	2533	206.025251798357	443
1	2556	207.961502629017	444
1	2556	207.961502629017	445
1	2556	207.961502629017	446
1	2556	207.961502629017	447
1	2575	209.250689178484	448
1	2575	209.250689178484	449
1	2575	209.250689178484	450
1	2575	209.250689178484	451
1	2598	211.183920289259	452
1	2598	211.183920289259	453
1	2598	211.183920289259	454
1	2598	211.183920289259	455
1	2621	213.186903502822	456
1	2621	213.186903502822	457
1	2621	213.186903502822	458
1	2621	213.186903502822	459
1	2646	215.262867979601	460
1	2646	215.262867979601	461
1	2646	215.262867979601	462
1	2646	215.262867979601	463
1	2669	216.275434083573	464
1	2669	216.275434083573	465
1	2669	216.275434083573	466
1	2669	216.275434083573	467
1	2692	217.787967491117	468
1	2692	217.787967491117	469
1	2692	217.787967491117	470
1	2692	217.787967491117	471
1	2715	219.568337602809	472
1	2715	219.568337602809	473
1	2715	219.568337602809	474
1	2715	219.568337602809	475
1	2738	221.303413430301	476
1	2738	221.303413430301	477
1	2738	221.303413430301	478
1	2738	221.303413430301	479
1	2761	223.086307991794	480
1	2761	223.086307991794	481
1	2761	223.086307991794	482
1	2761	223.086307991794	483
1	2784	224.259670532294	484
1	2784	224.259670532294	485
1	2784	224.259670532294	486
1	2784	224.259670532294	487
1	2807	225.827789675888	488
1	2807	225.827789675888	489
1	2807	225.827789675888	490
1	2807	225.827789675888	491
1	2830	226.83492718262	492
1	2830	226.83492718262	493
1	2830	226.83492718262	494
1	2830	226.83492718262	495
1	2846	228.097713719499	496
1	2846	228.097713719499	497
1	2846	228.097713719499	498
1	2846	228.097713719499	499
1	2869	229.234203320375	500
1	2869	229.234203320375	501
1	2869	229.234203320375	502
1	2869	229.234203320375	503
1	2892	231.197349055161	504
1	2892	231.197349055161	505
1	2892	231.197349055161	506
1	2892	231.197349055161	507
1	2915	232.280566771524	508
1	2915	232.280566771524	509
1	2915	232.280566771524	510
1	2915	232.280566771524	511
1	2938	234.24537178495	512
1	2938	234.24537178495	513
1	2938	234.24537178495	514
1	2938	234.24537178495	515
1	2963	237.10437279043	516
1	2963	237.10437279043	517
1	2963	237.10437279043	518
1	2963	237.10437279043	519
1	2986	238.696466780945	520
1	2986	238.696466780945	521
1	2986	238.696466780945	522
1	2986	238.696466780945	523
2	8	0.158381092426	0
2	8	0.158381092426	1
2	8	0.158381092426	2
2	32	1.754013332946	3
2	32	1.754013332946	4
2	32	1.754013332946	5
2	56	4.990144764112	6
2	56	4.990144764112	7
2	56	4.990144764112	8
2	79	6.710248871374	9
2	79	6.710248871374	10
2	79	6.710248871374	11
2	110	8.336919562016	12
2	110	8.336919562016	13
2	110	8.336919562016	14
2	126	10.069869788695	15
2	126	10.069869788695	16
2	126	10.069869788695	17
2	149	11.315008685017	18
2	149	11.315008685017	19
2	149	11.315008685017	20
2	171	13.198981223415	21
2	171	13.198981223415	22
2	171	13.198981223415	23
2	194	14.247502651618	24
2	194	14.247502651618	25
2	194	14.247502651618	26
2	225	16.116791449648	27
2	225	16.116791449648	28
2	225	16.116791449648	29
2	242	17.678444288957	30
2	242	17.678444288957	31
2	242	17.678444288957	32
2	264	18.936064555191	33
2	264	18.936064555191	34
2	264	18.936064555191	35
2	294	20.614638655126	36
2	294	20.614638655126	37
2	294	20.614638655126	38
2	312	23.689525317649	39
2	312	23.689525317649	40
2	312	23.689525317649	41
2	335	24.828249501764	42
2	335	24.828249501764	43
2	335	24.828249501764	44
2	357	26.20243160688	45
2	357	26.20243160688	46
2	357	26.20243160688	47
2	382	27.432015500166	48
2	382	27.432015500166	49
2	382	27.432015500166	50
2	405	30.348701776908	51
2	405	30.348701776908	52
2	405	30.348701776908	53
2	433	31.799290191066	54
2	433	31.799290191066	55
2	433	31.799290191066	56
2	454	33.285793540799	57
2	454	33.285793540799	58
2	454	33.285793540799	59
2	476	34.520703572471	60
2	476	34.520703572471	61
2	476	34.520703572471	62
2	497	36.23428889464	63
2	497	36.23428889464	64
2	497	36.23428889464	65
2	518	37.63083053443	66
2	518	37.63083053443	67
2	518	37.63083053443	68
2	548	38.743817152841	69
2	548	38.743817152841	70
2	548	38.743817152841	71
2	563	40.43026585521	72
2	563	40.43026585521	73
2	563	40.43026585521	74
2	586	42.045205219124	75
2	586	42.045205219124	76
2	586	42.045205219124	77
2	610	43.316576155653	78
2	610	43.316576155653	79
2	610	43.316576155653	80
2	627	45.083870063871	81
2	627	45.083870063871	82
2	627	45.083870063871	83
2	653	48.462048341822	84
2	653	48.462048341822	85
2	653	48.462048341822	86
2	676	49.936083422154	87
2	676	49.936083422154	88
2	676	49.936083422154	89
2	707	51.752509585262	90
2	707	51.752509585262	91
2	707	51.752509585262	92
2	729	53.209397880111	93
2	729	53.209397880111	94
2	729	53.209397880111	95
2	749	54.317936941755	96
2	749	54.317936941755	97
2	749	54.317936941755	98
2	775	55.749685221144	99
2	775	55.749685221144	100
2	775	55.749685221144	101
2	802	57.626363887515	102
2	802	57.626363887515	103
2	802	57.626363887515	104
2	821	65.634138062894	105
2	821	65.634138062894	106
2	821	65.634138062894	107
2	852	66.920992516938	108
2	852	66.920992516938	109
2	852	66.920992516938	110
2	874	68.875851801098	111
2	874	68.875851801098	112
2	874	68.875851801098	113
2	891	70.089604285086	114
2	891	70.089604285086	115
2	891	70.089604285086	116
2	914	71.478428103138	117
2	914	71.478428103138	118
2	914	71.478428103138	119
2	938	74.351082046904	120
2	938	74.351082046904	121
2	938	74.351082046904	122
2	964	77.826229194604	123
2	964	77.826229194604	124
2	964	77.826229194604	125
2	986	79.817982516414	126
2	986	79.817982516414	127
2	986	79.817982516414	128
2	1009	81.802169090914	129
2	1009	81.802169090914	130
2	1009	81.802169090914	131
2	1032	83.173607508969	132
2	1032	83.173607508969	133
2	1032	83.173607508969	134
2	1055	84.559733220081	135
2	1055	84.559733220081	136
2	1055	84.559733220081	137
2	1086	85.591627303085	138
2	1086	85.591627303085	139
2	1086	85.591627303085	140
2	1110	86.690218317358	141
2	1110	86.690218317358	142
2	1110	86.690218317358	143
2	1133	88.532194645599	144
2	1133	88.532194645599	145
2	1133	88.532194645599	146
2	1157	93.343261131348	147
2	1157	93.343261131348	148
2	1157	93.343261131348	149
2	1175	94.514230665953	150
2	1175	94.514230665953	151
2	1175	94.514230665953	152
2	1194	95.863453845984	153
2	1194	95.863453845984	154
2	1194	95.863453845984	155
2	1218	97.392055652476	156
2	1218	97.392055652476	157
2	1218	97.392055652476	158
2	1251	98.74143722414	159
2	1251	98.74143722414	160
2	1251	98.74143722414	161
2	1270	100.293426142252	162
2	1270	100.293426142252	163
2	1270	100.293426142252	164
2	1291	101.593261619256	165
2	1291	101.593261619256	166
2	1291	101.593261619256	167
2	1330	104.962266575628	168
2	1330	104.962266575628	169
2	1330	104.962266575628	170
2	1341	106.200601080421	171
2	1341	106.200601080421	172
2	1341	106.200601080421	173
2	1364	107.547843920569	174
2	1364	107.547843920569	175
2	1364	107.547843920569	176
2	1391	109.397973893377	177
2	1391	109.397973893377	178
2	1391	109.397973893377	179
2	1414	114.079371115337	180
2	1414	114.079371115337	181
2	1414	114.079371115337	182
2	1437	115.358704501137	183
2	1437	115.358704501137	184
2	1437	115.358704501137	185
2	1462	116.583871170808	186
2	1462	116.583871170808	187
2	1462	116.583871170808	188
2	1486	117.781668911368	189
2	1486	117.781668911368	190
2	1486	117.781668911368	191
2	1507	118.887451779162	192
2	1507	118.887451779162	193
2	1507	118.887451779162	194
2	1530	120.685470168141	195
2	1530	120.685470168141	196
2	1530	120.685470168141	197
2	1562	123.930608065025	198
2	1562	123.930608065025	199
2	1562	123.930608065025	200
2	1574	125.647517046931	201
2	1574	125.647517046931	202
2	1574	125.647517046931	203
2	1597	127.463751918392	204
2	1597	127.463751918392	205
2	1597	127.463751918392	206
2	1619	129.080835871763	207
2	1619	129.080835871763	208
2	1619	129.080835871763	209
2	1648	131.058140991331	210
2	1648	131.058140991331	211
2	1648	131.058140991331	212
2	1666	132.416111631561	213
2	1666	132.416111631561	214
2	1666	132.416111631561	215
2	1693	136.855531683576	216
2	1693	136.855531683576	217
2	1693	136.855531683576	218
2	1722	140.444942961983	219
2	1722	140.444942961983	220
2	1722	140.444942961983	221
2	1749	142.158156592868	222
2	1749	142.158156592868	223
2	1749	142.158156592868	224
2	1765	143.40713180833	225
2	1765	143.40713180833	226
2	1765	143.40713180833	227
2	1787	145.310439125287	228
2	1787	145.310439125287	229
2	1787	145.310439125287	230
2	1806	146.677035970467	231
2	1806	146.677035970467	232
2	1806	146.677035970467	233
2	1832	148.612368206876	234
2	1832	148.612368206876	235
2	1832	148.612368206876	236
2	1855	149.623996998729	237
2	1855	149.623996998729	238
2	1855	149.623996998729	239
2	1883	150.71592628595	240
2	1883	150.71592628595	241
2	1883	150.71592628595	242
2	1902	152.158594468025	243
2	1902	152.158594468025	244
2	1902	152.158594468025	245
2	1921	153.660945258528	246
2	1921	153.660945258528	247
2	1921	153.660945258528	248
2	1956	155.213932969342	249
2	1956	155.213932969342	250
2	1956	155.213932969342	251
2	1971	160.182415680139	252
2	1971	160.182415680139	253
2	1971	160.182415680139	254
2	1994	161.896723165973	255
2	1994	161.896723165973	256
2	1994	161.896723165973	257
2	2022	166.999119587766	258
2	2022	166.999119587766	259
2	2022	166.999119587766	260
2	2045	168.036419678446	261
2	2045	168.036419678446	262
2	2045	168.036419678446	263
2	2067	169.254458043323	264
2	2067	169.254458043323	265
2	2067	169.254458043323	266
2	2091	170.731887368204	267
2	2091	170.731887368204	268
2	2091	170.731887368204	269
2	2125	172.218922233358	270
2	2125	172.218922233358	271
2	2125	172.218922233358	272
2	2159	178.268074308859	273
2	2159	178.268074308859	274
2	2159	178.268074308859	275
2	2182	179.512011352611	276
2	2182	179.512011352611	277
2	2182	179.512011352611	278
2	2205	181.423789620069	279
2	2205	181.423789620069	280
2	2205	181.423789620069	281
2	2230	182.979096954896	282
2	2230	182.979096954896	283
2	2230	182.979096954896	284
2	2252	184.872130993402	285
2	2252	184.872130993402	286
2	2252	184.872130993402	287
2	2270	186.83393371353	288
2	2270	186.83393371353	289
2	2270	186.83393371353	290
2	2295	188.245106836878	291
2	2295	188.245106836878	292
2	2295	188.245106836878	293
2	2316	189.941642599801	294
2	2316	189.941642599801	295
2	2316	189.941642599801	296
2	2342	192.9312384297	297
2	2342	192.9312384297	298
2	2342	192.9312384297	299
2	2361	194.015574133687	300
2	2361	194.015574133687	301
2	2361	194.015574133687	302
2	2384	195.244806801467	303
2	2384	195.244806801467	304
2	2384	195.244806801467	305
2	2409	196.994864936096	306
2	2409	196.994864936096	307
2	2409	196.994864936096	308
2	2434	198.280560730388	309
2	2434	198.280560730388	310
2	2434	198.280560730388	311
2	2455	200.199946611227	312
2	2455	200.199946611227	313
2	2455	200.199946611227	314
2	2480	201.315676837817	315
2	2480	201.315676837817	316
2	2480	201.315676837817	317
2	2496	202.435549397916	318
2	2496	202.435549397916	319
2	2496	202.435549397916	320
2	2523	204.278144161874	321
2	2523	204.278144161874	322
2	2523	204.278144161874	323
2	2539	206.045429751226	324
2	2539	206.045429751226	325
2	2539	206.045429751226	326
2	2561	207.974079417261	327
2	2561	207.974079417261	328
2	2561	207.974079417261	329
2	2580	209.264550602738	330
2	2580	209.264550602738	331
2	2580	209.264550602738	332
2	2612	211.231539934517	333
2	2612	211.231539934517	334
2	2612	211.231539934517	335
2	2626	213.198735952469	336
2	2626	213.198735952469	337
2	2626	213.198735952469	338
2	2652	215.278399269494	339
2	2652	215.278399269494	340
2	2652	215.278399269494	341
2	2675	216.292935804447	342
2	2675	216.292935804447	343
2	2675	216.292935804447	344
2	2697	217.797974663296	345
2	2697	217.797974663296	346
2	2697	217.797974663296	347
2	2724	219.595116030696	348
2	2724	219.595116030696	349
2	2724	219.595116030696	350
2	2743	221.319522645698	351
2	2743	221.319522645698	352
2	2743	221.319522645698	353
2	2766	223.102186479592	354
2	2766	223.102186479592	355
2	2766	223.102186479592	356
2	2789	224.279949285292	357
2	2789	224.279949285292	358
2	2789	224.279949285292	359
2	2812	225.839049270741	360
2	2812	225.839049270741	361
2	2812	225.839049270741	362
2	2852	228.121996519306	363
2	2852	228.121996519306	364
2	2852	228.121996519306	365
2	2881	229.271561725499	366
2	2881	229.271561725499	367
2	2881	229.271561725499	368
2	2897	231.208127821321	369
2	2897	231.208127821321	370
2	2897	231.208127821321	371
2	2921	232.293945665783	372
2	2921	232.293945665783	373
2	2921	232.293945665783	374
2	2944	234.265666473798	375
2	2944	234.265666473798	376
2	2944	234.265666473798	377
2	2968	237.125373989367	378
2	2968	237.125373989367	379
2	2968	237.125373989367	380
2	2999	238.733377428451	381
2	2999	238.733377428451	382
2	2999	238.733377428451	383
3	9	0.160742618959	0
3	9	0.160742618959	1
3	9	0.160742618959	2
3	9	0.160742618959	3
3	42	1.794807677856	4
3	42	1.794807677856	5
3	42	1.794807677856	6
3	42	1.794807677856	7
3	61	5.011710695974	8
3	61	5.011710695974	9
3	61	5.011710695974	10
3	61	5.011710695974	11
3	87	6.727560544348	12
3	87	6.727560544348	13
3	87	6.727560544348	14
3	87	6.727560544348	15
3	102	8.324576546828	16
3	102	8.324576546828	17
3	102	8.324576546828	18
3	102	8.324576546828	19
3	136	10.090732482504	20
3	136	10.090732482504	21
3	136	10.090732482504	22
3	136	10.090732482504	23
3	152	11.322535219842	24
3	152	11.322535219842	25
3	152	11.322535219842	26
3	152	11.322535219842	27
3	176	13.211901149268	28
3	176	13.211901149268	29
3	176	13.211901149268	30
3	176	13.211901149268	31
3	195	14.25613081745	32
3	195	14.25613081745	33
3	195	14.25613081745	34
3	195	14.25613081745	35
3	217	16.104762967963	36
3	217	16.104762967963	37
3	217	16.104762967963	38
3	217	16.104762967963	39
3	241	17.677319025605	40
3	241	17.677319025605	41
3	241	17.677319025605	42
3	241	17.677319025605	43
3	263	18.928819871206	44
3	263	18.928819871206	45
3	263	18.928819871206	46
3	263	18.928819871206	47
3	289	20.598446411606	48
3	289	20.598446411606	49
3	289	20.598446411606	50
3	289	20.598446411606	51
3	315	23.698661129898	52
3	315	23.698661129898	53
3	315	23.698661129898	54
3	315	23.698661129898	55
3	334	24.823904805878	56
3	334	24.823904805878	57
3	334	24.823904805878	58
3	334	24.823904805878	59
3	358	26.202723353784	60
3	358	26.202723353784	61
3	358	26.202723353784	62
3	358	26.202723353784	63
3	381	27.430675713898	64
3	381	27.430675713898	65
3	381	27.430675713898	66
3	381	27.430675713898	67
3	413	30.37655432733	68
3	413	30.37655432733	69
3	413	30.37655432733	70
3	413	30.37655432733	71
3	428	31.778911690311	72
3	428	31.778911690311	73
3	428	31.778911690311	74
3	428	31.778911690311	75
3	455	33.292439456315	76
3	455	33.292439456315	77
3	455	33.292439456315	78
3	455	33.292439456315	79
3	475	34.519162044133	80
3	475	34.519162044133	81
3	475	34.519162044133	82
3	475	34.519162044133	83
3	505	36.267402401096	84
3	505	36.267402401096	85
3	505	36.267402401096	86
3	505	36.267402401096	87
3	517	37.628950853373	88
3	517	37.628950853373	89
3	517	37.628950853373	90
3	517	37.628950853373	91
3	540	38.712524992506	92
3	540	38.712524992506	93
3	540	38.712524992506	94
3	540	38.712524992506	95
3	568	40.446719209474	96
3	568	40.446719209474	97
3	568	40.446719209474	98
3	568	40.446719209474	99
3	594	42.060366220039	100
3	594	42.060366220039	101
3	594	42.060366220039	102
3	594	42.060366220039	103
3	632	45.099529009287	104
3	632	45.099529009287	105
3	632	45.099529009287	106
3	632	45.099529009287	107
3	652	48.456641572498	108
3	652	48.456641572498	109
3	652	48.456641572498	110
3	652	48.456641572498	111
3	677	49.937323849912	112
3	677	49.937323849912	113
3	677	49.937323849912	114
3	677	49.937323849912	115
3	698	51.729078171884	116
3	698	51.729078171884	117
3	698	51.729078171884	118
3	698	51.729078171884	119
3	721	53.175257715806	120
3	721	53.175257715806	121
3	721	53.175257715806	122
3	721	53.175257715806	123
3	744	54.30776991796	124
3	744	54.30776991796	125
3	744	54.30776991796	126
3	744	54.30776991796	127
3	768	55.739525935507	128
3	768	55.739525935507	129
3	768	55.739525935507	130
3	768	55.739525935507	131
3	790	57.59476498734	132
3	790	57.59476498734	133
3	790	57.59476498734	134
3	790	57.59476498734	135
3	832	65.658259474088	136
3	832	65.658259474088	137
3	832	65.658259474088	138
3	832	65.658259474088	139
3	847	66.906402237663	140
3	847	66.906402237663	141
3	847	66.906402237663	142
3	847	66.906402237663	143
3	867	68.859744724865	144
3	867	68.859744724865	145
3	867	68.859744724865	146
3	867	68.859744724865	147
3	890	70.087967031777	148
3	890	70.087967031777	149
3	890	70.087967031777	150
3	890	70.087967031777	151
3	913	71.4779962557	152
3	913	71.4779962557	153
3	913	71.4779962557	154
3	913	71.4779962557	155
3	945	74.366642609918	156
3	945	74.366642609918	157
3	945	74.366642609918	158
3	945	74.366642609918	159
3	971	77.846327605986	160
3	971	77.846327605986	161
3	971	77.846327605986	162
3	971	77.846327605986	163
3	994	79.835468504444	164
3	994	79.835468504444	165
3	994	79.835468504444	166
3	994	79.835468504444	167
3	1010	81.807996421616	168
3	1010	81.807996421616	169
3	1010	81.807996421616	170
3	1010	81.807996421616	171
3	1037	83.183711318059	172
3	1037	83.183711318059	173
3	1037	83.183711318059	174
3	1037	83.183711318059	175
3	1056	84.563418267285	176
3	1056	84.563418267285	177
3	1056	84.563418267285	178
3	1056	84.563418267285	179
3	1081	85.57304132972	180
3	1081	85.57304132972	181
3	1081	85.57304132972	182
3	1081	85.57304132972	183
3	1101	86.665314748532	184
3	1101	86.665314748532	185
3	1101	86.665314748532	186
3	1101	86.665314748532	187
3	1124	88.494212545791	188
3	1124	88.494212545791	189
3	1124	88.494212545791	190
3	1124	88.494212545791	191
3	1151	93.327852030054	192
3	1151	93.327852030054	193
3	1151	93.327852030054	194
3	1151	93.327852030054	195
3	1174	94.514016720244	196
3	1174	94.514016720244	197
3	1174	94.514016720244	198
3	1174	94.514016720244	199
3	1193	95.854389182503	200
3	1193	95.854389182503	201
3	1193	95.854389182503	202
3	1193	95.854389182503	203
3	1216	97.387553142365	204
3	1216	97.387553142365	205
3	1216	97.387553142365	206
3	1216	97.387553142365	207
3	1239	98.700065676076	208
3	1239	98.700065676076	209
3	1239	98.700065676076	210
3	1239	98.700065676076	211
3	1262	100.281448824573	212
3	1262	100.281448824573	213
3	1262	100.281448824573	214
3	1262	100.281448824573	215
3	1285	101.580092422171	216
3	1285	101.580092422171	217
3	1285	101.580092422171	218
3	1285	101.580092422171	219
3	1319	104.92927270968	220
3	1319	104.92927270968	221
3	1319	104.92927270968	222
3	1319	104.92927270968	223
3	1343	106.205181812039	224
3	1343	106.205181812039	225
3	1343	106.205181812039	226
3	1343	106.205181812039	227
3	1365	107.551411815303	228
3	1365	107.551411815303	229
3	1365	107.551411815303	230
3	1365	107.551411815303	231
3	1390	109.393880587739	232
3	1390	109.393880587739	233
3	1390	109.393880587739	234
3	1390	109.393880587739	235
3	1422	114.120538539994	236
3	1422	114.120538539994	237
3	1422	114.120538539994	238
3	1422	114.120538539994	239
3	1438	115.361565332527	240
3	1438	115.361565332527	241
3	1438	115.361565332527	242
3	1438	115.361565332527	243
3	1460	116.581452547181	244
3	1460	116.581452547181	245
3	1460	116.581452547181	246
3	1460	116.581452547181	247
3	1490	117.79353340771	248
3	1490	117.79353340771	249
3	1490	117.79353340771	250
3	1490	117.79353340771	251
3	1514	118.906806461348	252
3	1514	118.906806461348	253
3	1514	118.906806461348	254
3	1514	118.906806461348	255
3	1529	120.679050345372	256
3	1529	120.679050345372	257
3	1529	120.679050345372	258
3	1529	120.679050345372	259
3	1555	123.915041038384	260
3	1555	123.915041038384	261
3	1555	123.915041038384	262
3	1555	123.915041038384	263
3	1580	125.659897926013	264
3	1580	125.659897926013	265
3	1580	125.659897926013	266
3	1580	125.659897926013	267
3	1596	127.463642862002	268
3	1596	127.463642862002	269
3	1596	127.463642862002	270
3	1596	127.463642862002	271
3	1620	129.086782683151	272
3	1620	129.086782683151	273
3	1620	129.086782683151	274
3	1620	129.086782683151	275
3	1642	131.045805854271	276
3	1642	131.045805854271	277
3	1642	131.045805854271	278
3	1642	131.045805854271	279
3	1669	132.423503417669	280
3	1669	132.423503417669	281
3	1669	132.423503417669	282
3	1669	132.423503417669	283
3	1696	136.863710557744	284
3	1696	136.863710557744	285
3	1696	136.863710557744	286
3	1696	136.863710557744	287
3	1717	140.431618442767	288
3	1717	140.431618442767	289
3	1717	140.431618442767	290
3	1717	140.431618442767	291
3	1741	142.142004713734	292
3	1741	142.142004713734	293
3	1741	142.142004713734	294
3	1741	142.142004713734	295
3	1763	143.401878044092	296
3	1763	143.401878044092	297
3	1763	143.401878044092	298
3	1763	143.401878044092	299
3	1786	145.307998155017	300
3	1786	145.307998155017	301
3	1786	145.307998155017	302
3	1786	145.307998155017	303
3	1807	146.678799431575	304
3	1807	146.678799431575	305
3	1807	146.678799431575	306
3	1807	146.678799431575	307
3	1833	148.614473174537	308
3	1833	148.614473174537	309
3	1833	148.614473174537	310
3	1833	148.614473174537	311
3	1856	149.628602919523	312
3	1856	149.628602919523	313
3	1856	149.628602919523	314
3	1856	149.628602919523	315
3	1878	150.705212915886	316
3	1878	150.705212915886	317
3	1878	150.705212915886	318
3	1878	150.705212915886	319
3	1901	152.154720816124	320
3	1901	152.154720816124	321
3	1901	152.154720816124	322
3	1901	152.154720816124	323
3	1922	153.666533344451	324
3	1922	153.666533344451	325
3	1922	153.666533344451	326
3	1922	153.666533344451	327
3	1944	155.187879651445	328
3	1944	155.187879651445	329
3	1944	155.187879651445	330
3	1944	155.187879651445	331
3	1973	160.189979408992	332
3	1973	160.189979408992	333
3	1973	160.189979408992	334
3	1973	160.189979408992	335
3	2002	161.918028566274	336
3	2002	161.918028566274	337
3	2002	161.918028566274	338
3	2002	161.918028566274	339
3	2021	166.993885259759	340
3	2021	166.993885259759	341
3	2021	166.993885259759	342
3	2021	166.993885259759	343
3	2044	168.035902657628	344
3	2044	168.035902657628	345
3	2044	168.035902657628	346
3	2044	168.035902657628	347
3	2069	169.261906762429	348
3	2069	169.261906762429	349
3	2069	169.261906762429	350
3	2069	169.261906762429	351
3	2090	170.726509865412	352
3	2090	170.726509865412	353
3	2090	170.726509865412	354
3	2090	170.726509865412	355
3	2114	172.194643736708	356
3	2114	172.194643736708	357
3	2114	172.194643736708	358
3	2114	172.194643736708	359
3	2140	176.33636088171	360
3	2140	176.33636088171	361
3	2140	176.33636088171	362
3	2140	176.33636088171	363
3	2164	178.279042954278	364
3	2164	178.279042954278	365
3	2164	178.279042954278	366
3	2164	178.279042954278	367
3	2186	179.522651787792	368
3	2186	179.522651787792	369
3	2186	179.522651787792	370
3	2186	179.522651787792	371
3	2209	181.438475989668	372
3	2209	181.438475989668	373
3	2209	181.438475989668	374
3	2209	181.438475989668	375
3	2228	182.975061692118	376
3	2228	182.975061692118	377
3	2228	182.975061692118	378
3	2228	182.975061692118	379
3	2251	184.868396259602	380
3	2251	184.868396259602	381
3	2251	184.868396259602	382
3	2251	184.868396259602	383
3	2271	186.840808621258	384
3	2271	186.840808621258	385
3	2271	186.840808621258	386
3	2271	186.840808621258	387
3	2293	188.244174705161	388
3	2293	188.244174705161	389
3	2293	188.244174705161	390
3	2293	188.244174705161	391
3	2320	189.958077940372	392
3	2320	189.958077940372	393
3	2320	189.958077940372	394
3	2320	189.958077940372	395
3	2341	192.921568649515	396
3	2341	192.921568649515	397
3	2341	192.921568649515	398
3	2341	192.921568649515	399
3	2369	194.049054117713	400
3	2369	194.049054117713	401
3	2369	194.049054117713	402
3	2369	194.049054117713	403
3	2392	195.265814482254	404
3	2392	195.265814482254	405
3	2392	195.265814482254	406
3	2392	195.265814482254	407
3	2408	196.994406943019	408
3	2408	196.994406943019	409
3	2408	196.994406943019	410
3	2408	196.994406943019	411
3	2433	198.277503894445	412
3	2433	198.277503894445	413
3	2433	198.277503894445	414
3	2433	198.277503894445	415
3	2454	200.197049835068	416
3	2454	200.197049835068	417
3	2454	200.197049835068	418
3	2454	200.197049835068	419
3	2473	201.302417922496	420
3	2473	201.302417922496	421
3	2473	201.302417922496	422
3	2473	201.302417922496	423
3	2506	202.472080788713	424
3	2506	202.472080788713	425
3	2506	202.472080788713	426
3	2506	202.472080788713	427
3	2518	204.265167617165	428
3	2518	204.265167617165	429
3	2518	204.265167617165	430
3	2518	204.265167617165	431
3	2545	206.057117686968	432
3	2545	206.057117686968	433
3	2545	206.057117686968	434
3	2545	206.057117686968	435
3	2562	207.974088661714	436
3	2562	207.974088661714	437
3	2562	207.974088661714	438
3	2562	207.974088661714	439
3	2581	209.264712910597	440
3	2581	209.264712910597	441
3	2581	209.264712910597	442
3	2581	209.264712910597	443
3	2606	211.205582658743	444
3	2606	211.205582658743	445
3	2606	211.205582658743	446
3	2606	211.205582658743	447
3	2627	213.201949002102	448
3	2627	213.201949002102	449
3	2627	213.201949002102	450
3	2627	213.201949002102	451
3	2651	215.275168391514	452
3	2651	215.275168391514	453
3	2651	215.275168391514	454
3	2651	215.275168391514	455
3	2678	216.300052656739	456
3	2678	216.300052656739	457
3	2678	216.300052656739	458
3	2678	216.300052656739	459
3	2704	217.808702764101	460
3	2704	217.808702764101	461
3	2704	217.808702764101	462
3	2704	217.808702764101	463
3	2723	219.592835961998	464
3	2723	219.592835961998	465
3	2723	219.592835961998	466
3	2723	219.592835961998	467
3	2744	221.326390809732	468
3	2744	221.326390809732	469
3	2744	221.326390809732	470
3	2744	221.326390809732	471
3	2773	223.116968857081	472
3	2773	223.116968857081	473
3	2773	223.116968857081	474
3	2773	223.116968857081	475
3	2795	224.292862803895	476
3	2795	224.292862803895	477
3	2795	224.292862803895	478
3	2795	224.292862803895	479
3	2820	225.862111028637	480
3	2820	225.862111028637	481
3	2820	225.862111028637	482
3	2820	225.862111028637	483
3	2835	226.933234845672	484
3	2835	226.933234845672	485
3	2835	226.933234845672	486
3	2835	226.933234845672	487
3	2858	228.140373723856	488
3	2858	228.140373723856	489
3	2858	228.140373723856	490
3	2858	228.140373723856	491
3	2874	229.250384649101	492
3	2874	229.250384649101	493
3	2874	229.250384649101	494
3	2874	229.250384649101	495
3	2902	231.220442481182	496
3	2902	231.220442481182	497
3	2902	231.220442481182	498
3	2902	231.220442481182	499
3	2928	232.320953156244	500
3	2928	232.320953156244	501
3	2928	232.320953156244	502
3	2928	232.320953156244	503
3	2947	234.271606362424	504
3	2947	234.271606362424	505
3	2947	234.271606362424	506
3	2947	234.271606362424	507
3	2972	237.145732877412	508
3	2972	237.145732877412	509
3	2972	237.145732877412	510
3	2972	237.145732877412	511
3	2992	238.711353157957	512
3	2992	238.711353157957	513
3	2992	238.711353157957	514
3	2992	238.711353157957	515
4	10	0.163252200566	0
4	10	0.163252200566	1
4	31	1.753305978569	2
4	31	1.753305978569	3
4	69	5.023163476247	4
4	69	5.023163476247	5
4	80	6.713766356441	6
4	80	6.713766356441	7
4	103	8.326190978945	8
4	103	8.326190978945	9
4	125	10.060676189417	10
4	125	10.060676189417	11
4	148	11.309211117432	12
4	148	11.309211117432	13
4	177	13.216724567613	14
4	177	13.216724567613	15
4	203	14.274561647771	16
4	203	14.274561647771	17
4	218	16.105972460298	18
4	218	16.105972460298	19
4	240	17.672483190878	20
4	240	17.672483190878	21
4	269	18.939789098752	22
4	269	18.939789098752	23
4	286	20.576276216653	24
4	286	20.576276216653	25
4	311	23.687153219796	26
4	311	23.687153219796	27
4	340	24.836879957199	28
4	340	24.836879957199	29
4	367	26.224733062849	30
4	367	26.224733062849	31
4	380	27.429292094673	32
4	380	27.429292094673	33
4	418	30.394245525341	34
4	418	30.394245525341	35
4	437	31.810247323186	36
4	437	31.810247323186	37
4	451	33.266892826937	38
4	451	33.266892826937	39
4	474	34.517727439553	40
4	474	34.517727439553	41
4	519	37.631865523085	42
4	519	37.631865523085	43
4	545	38.726792480736	44
4	545	38.726792480736	45
4	567	40.442947317871	46
4	567	40.442947317871	47
4	587	42.050260339422	48
4	587	42.050260339422	49
4	609	43.313989183757	50
4	609	43.313989183757	51
4	631	45.094080192617	52
4	631	45.094080192617	53
4	654	48.462445890458	54
4	654	48.462445890458	55
4	675	49.935456585146	56
4	675	49.935456585146	57
4	703	51.739438200181	58
4	703	51.739438200181	59
4	726	53.193106086002	60
4	726	53.193106086002	61
4	751	54.32051455318	62
4	751	54.32051455318	63
4	767	55.73152121287	64
4	767	55.73152121287	65
4	796	57.609176535447	66
4	796	57.609176535447	67
4	822	65.639580855389	68
4	822	65.639580855389	69
4	844	66.863711054912	70
4	844	66.863711054912	71
4	868	68.868932777481	72
4	868	68.868932777481	73
4	899	70.102191391932	74
4	899	70.102191391932	75
4	922	71.489204569663	76
4	922	71.489204569663	77
4	939	74.355346722728	78
4	939	74.355346722728	79
4	963	77.824417791452	80
4	963	77.824417791452	81
4	987	79.820792771089	82
4	987	79.820792771089	83
4	1019	81.832320387213	84
4	1019	81.832320387213	85
4	1033	83.175495253842	86
4	1033	83.175495253842	87
4	1064	84.57761306052	88
4	1064	84.57761306052	89
4	1078	85.561922288436	90
4	1078	85.561922288436	91
4	1114	86.722578700501	92
4	1114	86.722578700501	93
4	1129	88.513320583592	94
4	1129	88.513320583592	95
4	1158	93.346963488135	96
4	1158	93.346963488135	97
4	1176	94.51424273891	98
4	1176	94.51424273891	99
4	1199	95.86483006149	100
4	1199	95.86483006149	101
4	1217	97.389417143127	102
4	1217	97.389417143127	103
4	1240	98.705627448265	104
4	1240	98.705627448265	105
4	1263	100.282278307354	106
4	1263	100.282278307354	107
4	1286	101.586207482582	108
4	1286	101.586207482582	109
4	1308	103.322024242241	110
4	1308	103.322024242241	111
4	1318	104.928676547414	112
4	1318	104.928676547414	113
4	1342	106.205074974222	114
4	1342	106.205074974222	115
4	1369	107.560905524804	116
4	1369	107.560905524804	117
4	1387	109.382111609795	118
4	1387	109.382111609795	119
4	1427	114.152162589421	120
4	1427	114.152162589421	121
4	1439	115.363453500076	122
4	1439	115.363453500076	123
4	1461	116.581640700484	124
4	1461	116.581640700484	125
4	1483	117.746395175595	126
4	1483	117.746395175595	127
4	1506	118.883205132244	128
4	1506	118.883205132244	129
4	1535	120.69360374604	130
4	1535	120.69360374604	131
4	1554	123.911307508142	132
4	1554	123.911307508142	133
4	1573	125.64467363358	134
4	1573	125.64467363358	135
4	1598	127.467474525656	136
4	1598	127.467474525656	137
4	1621	129.087200403015	138
4	1621	129.087200403015	139
4	1647	131.056471905643	140
4	1647	131.056471905643	141
4	1665	132.413242478019	142
4	1665	132.413242478019	143
4	1692	136.847587470411	144
4	1692	136.847587470411	145
4	1727	140.469283244448	146
4	1727	140.469283244448	147
4	1740	142.137286124793	148
4	1740	142.137286124793	149
4	1764	143.404489832265	150
4	1764	143.404489832265	151
4	1816	146.697300678777	152
4	1816	146.697300678777	153
4	1829	148.600814826146	154
4	1829	148.600814826146	155
4	1852	149.611459481849	156
4	1852	149.611459481849	157
4	1875	150.682295679345	158
4	1875	150.682295679345	159
4	1898	152.144164384566	160
4	1898	152.144164384566	161
4	1926	153.675047803693	162
4	1926	153.675047803693	163
4	1945	155.192996261608	164
4	1945	155.192996261608	165
4	1972	160.187863888569	166
4	1972	160.187863888569	167
4	1995	161.902841179457	168
4	1995	161.902841179457	169
4	2034	167.019732116827	170
4	2034	167.019732116827	171
4	2053	168.05588321687	172
4	2053	168.05588321687	173
4	2068	169.257547502195	174
4	2068	169.257547502195	175
4	2103	170.755699839659	176
4	2103	170.755699839659	177
4	2113	172.193712956462	178
4	2113	172.193712956462	179
4	2145	176.346644691198	180
4	2145	176.346644691198	181
4	2160	178.271243074832	182
4	2160	178.271243074832	183
4	2195	179.546880730407	184
4	2195	179.546880730407	185
4	2210	181.442946304113	186
4	2210	181.442946304113	187
4	2229	182.976323161527	188
4	2229	182.976323161527	189
4	2260	184.884976475354	190
4	2260	184.884976475354	191
4	2283	186.86016764978	192
4	2283	186.86016764978	193
4	2294	188.244847402692	194
4	2294	188.244847402692	195
4	2338	192.909094260141	196
4	2338	192.909094260141	197
4	2365	194.028790458571	198
4	2365	194.028790458571	199
4	2385	195.246185299342	200
4	2385	195.246185299342	201
4	2407	196.988699345711	202
4	2407	196.988699345711	203
4	2430	198.265897758365	204
4	2430	198.265897758365	205
4	2453	200.195025690011	206
4	2453	200.195025690011	207
4	2472	201.301799603438	208
4	2472	201.301799603438	209
4	2495	202.435371148463	210
4	2495	202.435371148463	211
4	2538	206.040872930976	212
4	2538	206.040872930976	213
4	2563	207.974607985494	214
4	2563	207.974607985494	215
4	2593	209.290027495462	216
4	2593	209.290027495462	217
4	2603	211.195279484257	218
4	2603	211.195279484257	219
4	2635	213.214157823069	220
4	2635	213.214157823069	221
4	2653	215.283438298643	222
4	2653	215.283438298643	223
4	2674	216.288145914668	224
4	2674	216.288145914668	225
4	2698	217.798116403672	226
4	2698	217.798116403672	227
4	2720	219.579451081389	228
4	2720	219.579451081389	229
4	2748	221.329619216807	230
4	2748	221.329619216807	231
4	2767	223.103287444373	232
4	2767	223.103287444373	233
4	2790	224.284104206047	234
4	2790	224.284104206047	235
4	2825	225.875726773134	236
4	2825	225.875726773134	237
4	2851	228.112895953977	238
4	2851	228.112895953977	239
4	2879	229.265811122479	240
4	2879	229.265811122479	241
4	2898	231.215408076903	242
4	2898	231.215408076903	243
4	2920	232.292756373208	244
4	2920	232.292756373208	245
4	2943	234.261221406075	246
4	2943	234.261221406075	247
4	2973	237.147670982145	248
4	2973	237.147670982145	249
4	2991	238.708618823594	250
4	2991	238.708618823594	251
5	20	0.190616336646	0
5	20	0.190616336646	1
5	20	0.190616336646	2
5	38	1.784422255105	3
5	38	1.784422255105	4
5	38	1.784422255105	5
5	60	5.002206796932	6
5	60	5.002206796932	7
5	60	5.002206796932	8
5	84	6.721294483632	9
5	84	6.721294483632	10
5	84	6.721294483632	11
5	114	8.349840367349	12
5	114	8.349840367349	13
5	114	8.349840367349	14
5	132	10.080006434479	15
5	132	10.080006434479	16
5	132	10.080006434479	17
5	156	11.328520445911	18
5	156	11.328520445911	19
5	156	11.328520445911	20
5	175	13.209848928238	21
5	175	13.209848928238	22
5	175	13.209848928238	23
5	204	14.278295903984	24
5	204	14.278295903984	25
5	204	14.278295903984	26
5	229	16.153193033795	27
5	229	16.153193033795	28
5	229	16.153193033795	29
5	252	17.692832985506	30
5	252	17.692832985506	31
5	252	17.692832985506	32
5	270	18.943190151344	33
5	270	18.943190151344	34
5	270	18.943190151344	35
5	298	20.692292560325	36
5	298	20.692292560325	37
5	298	20.692292560325	38
5	323	23.714704120616	39
5	323	23.714704120616	40
5	323	23.714704120616	41
5	344	24.841266116878	42
5	344	24.841266116878	43
5	344	24.841266116878	44
5	366	26.222146428461	45
5	366	26.222146428461	46
5	366	26.222146428461	47
5	392	27.45412918823	48
5	392	27.45412918823	49
5	392	27.45412918823	50
5	409	30.359397953619	51
5	409	30.359397953619	52
5	409	30.359397953619	53
5	438	31.812390127925	54
5	438	31.812390127925	55
5	438	31.812390127925	56
5	463	33.317021007338	57
5	463	33.317021007338	58
5	463	33.317021007338	59
5	483	34.530412370032	60
5	483	34.530412370032	61
5	483	34.530412370032	62
5	501	36.25709313818	63
5	501	36.25709313818	64
5	501	36.25709313818	65
5	527	37.640923364674	66
5	527	37.640923364674	67
5	527	37.640923364674	68
5	552	38.755114202278	69
5	552	38.755114202278	70
5	552	38.755114202278	71
5	575	40.460093344256	72
5	575	40.460093344256	73
5	575	40.460093344256	74
5	591	42.056234902761	75
5	591	42.056234902761	76
5	591	42.056234902761	77
5	616	43.339507634241	78
5	616	43.339507634241	79
5	616	43.339507634241	80
5	635	45.107818754784	81
5	635	45.107818754784	82
5	635	45.107818754784	83
5	659	48.471420752373	84
5	659	48.471420752373	85
5	659	48.471420752373	86
5	687	49.947780230407	87
5	687	49.947780230407	88
5	687	49.947780230407	89
5	704	51.744706423902	90
5	704	51.744706423902	91
5	704	51.744706423902	92
5	733	53.240364242846	93
5	733	53.240364242846	94
5	733	53.240364242846	95
5	750	54.319519868442	96
5	750	54.319519868442	97
5	750	54.319519868442	98
5	779	55.789503017717	99
5	779	55.789503017717	100
5	779	55.789503017717	101
5	795	57.60492962018	102
5	795	57.60492962018	103
5	795	57.60492962018	104
5	826	65.647040797045	105
5	826	65.647040797045	106
5	826	65.647040797045	107
5	853	66.926619421137	108
5	853	66.926619421137	109
5	853	66.926619421137	110
5	873	68.875327992758	111
5	873	68.875327992758	112
5	873	68.875327992758	113
5	902	70.132695588836	114
5	902	70.132695588836	115
5	902	70.132695588836	116
5	923	71.497969244942	117
5	923	71.497969244942	118
5	923	71.497969244942	119
5	946	74.37113320339	120
5	946	74.37113320339	121
5	946	74.37113320339	122
5	970	77.837283155903	123
5	970	77.837283155903	124
5	970	77.837283155903	125
5	993	79.834060364055	126
5	993	79.834060364055	127
5	993	79.834060364055	128
5	1018	81.82390477382	129
5	1018	81.82390477382	130
5	1018	81.82390477382	131
5	1044	83.204746577115	132
5	1044	83.204746577115	133
5	1044	83.204746577115	134
5	1065	84.583152992721	135
5	1065	84.583152992721	136
5	1065	84.583152992721	137
5	1087	85.591926616843	138
5	1087	85.591926616843	139
5	1087	85.591926616843	140
5	1106	86.680145278775	141
5	1106	86.680145278775	142
5	1106	86.680145278775	143
5	1132	88.529767722958	144
5	1132	88.529767722958	145
5	1132	88.529767722958	146
5	1156	93.34057068844	147
5	1156	93.34057068844	148
5	1156	93.34057068844	149
5	1205	95.899528970733	150
5	1205	95.899528970733	151
5	1205	95.899528970733	152
5	1225	97.401670148144	153
5	1225	97.401670148144	154
5	1225	97.401670148144	155
5	1247	98.721214344617	156
5	1247	98.721214344617	157
5	1247	98.721214344617	158
5	1274	100.311934656139	159
5	1274	100.311934656139	160
5	1274	100.311934656139	161
5	1297	101.603351333129	162
5	1297	101.603351333129	163
5	1297	101.603351333129	164
5	1326	104.942436983592	165
5	1326	104.942436983592	166
5	1326	104.942436983592	167
5	1353	106.228140590204	168
5	1353	106.228140590204	169
5	1353	106.228140590204	170
5	1374	107.567165787975	171
5	1374	107.567165787975	172
5	1374	107.567165787975	173
5	1399	109.420722407902	174
5	1399	109.420722407902	175
5	1399	109.420722407902	176
5	1418	114.108769732933	177
5	1418	114.108769732933	178
5	1418	114.108769732933	179
5	1443	115.370452721137	180
5	1443	115.370452721137	181
5	1443	115.370452721137	182
5	1472	116.594475828561	183
5	1472	116.594475828561	184
5	1472	116.594475828561	185
5	1495	117.816249507733	186
5	1495	117.816249507733	187
5	1495	117.816249507733	188
5	1513	118.897465622288	189
5	1513	118.897465622288	190
5	1513	118.897465622288	191
5	1541	120.711621216788	192
5	1541	120.711621216788	193
5	1541	120.711621216788	194
5	1581	125.663173276141	195
5	1581	125.663173276141	196
5	1581	125.663173276141	197
5	1608	127.478490534182	198
5	1608	127.478490534182	199
5	1608	127.478490534182	200
5	1625	129.091724914012	201
5	1625	129.091724914012	202
5	1625	129.091724914012	203
5	1654	131.087684079048	204
5	1654	131.087684079048	205
5	1654	131.087684079048	206
5	1673	132.426946111737	207
5	1673	132.426946111737	208
5	1673	132.426946111737	209
5	1704	136.887519336473	210
5	1704	136.887519336473	211
5	1704	136.887519336473	212
5	1726	140.467297669965	213
5	1726	140.467297669965	214
5	1726	140.467297669965	215
5	1748	142.155810622727	216
5	1748	142.155810622727	217
5	1748	142.155810622727	218
5	1775	143.423415681726	219
5	1775	143.423415681726	220
5	1775	143.423415681726	221
5	1795	145.324026264097	222
5	1795	145.324026264097	223
5	1795	145.324026264097	224
5	1811	146.688315669916	225
5	1811	146.688315669916	226
5	1811	146.688315669916	227
5	1841	148.630902113738	228
5	1841	148.630902113738	229
5	1841	148.630902113738	230
5	1864	149.65734288095	231
5	1864	149.65734288095	232
5	1864	149.65734288095	233
5	1884	150.717792368179	234
5	1884	150.717792368179	235
5	1884	150.717792368179	236
5	1907	152.168157569974	237
5	1907	152.168157569974	238
5	1907	152.168157569974	239
5	1933	153.690194616905	240
5	1933	153.690194616905	241
5	1933	153.690194616905	242
5	1950	155.2000768889	243
5	1950	155.2000768889	244
5	1950	155.2000768889	245
5	1977	160.197756640019	246
5	1977	160.197756640019	247
5	1977	160.197756640019	248
5	2001	161.91570964552	249
5	2001	161.91570964552	250
5	2001	161.91570964552	251
5	2027	167.004214172457	252
5	2027	167.004214172457	253
5	2027	167.004214172457	254
5	2054	168.064764145897	255
5	2054	168.064764145897	256
5	2054	168.064764145897	257
5	2079	169.289865477695	258
5	2079	169.289865477695	259
5	2079	169.289865477695	260
5	2099	170.742959623789	261
5	2099	170.742959623789	262
5	2099	170.742959623789	263
5	2121	172.207247987403	264
5	2121	172.207247987403	265
5	2121	172.207247987403	266
5	2146	176.348412051465	267
5	2146	176.348412051465	268
5	2146	176.348412051465	269
5	2171	178.298657325337	270
5	2171	178.298657325337	271
5	2171	178.298657325337	272
5	2187	179.523064987535	273
5	2187	179.523064987535	274
5	2187	179.523064987535	275
5	2217	181.455315648265	276
5	2217	181.455315648265	277
5	2217	181.455315648265	278
5	2235	182.985419622702	279
5	2235	182.985419622702	280
5	2235	182.985419622702	281
5	2275	186.847933283934	282
5	2275	186.847933283934	283
5	2275	186.847933283934	284
5	2305	188.268855554289	285
5	2305	188.268855554289	286
5	2305	188.268855554289	287
5	2325	189.974489291191	288
5	2325	189.974489291191	289
5	2325	189.974489291191	290
5	2347	192.940439645606	291
5	2347	192.940439645606	292
5	2347	192.940439645606	293
5	2368	194.040688571265	294
5	2368	194.040688571265	295
5	2368	194.040688571265	296
5	2391	195.263026852874	297
5	2391	195.263026852874	298
5	2391	195.263026852874	299
5	2419	197.019264070695	300
5	2419	197.019264070695	301
5	2419	197.019264070695	302
5	2442	198.330873177961	303
5	2442	198.330873177961	304
5	2442	198.330873177961	305
5	2484	201.359228082446	306
5	2484	201.359228082446	307
5	2484	201.359228082446	308
5	2502	202.452012094115	309
5	2502	202.452012094115	310
5	2502	202.452012094115	311
5	2527	204.324625494107	312
5	2527	204.324625494107	313
5	2527	204.324625494107	314
5	2550	206.069076980407	315
5	2550	206.069076980407	316
5	2550	206.069076980407	317
5	2589	209.279375644583	318
5	2589	209.279375644583	319
5	2589	209.279375644583	320
5	2611	211.222716569926	321
5	2611	211.222716569926	322
5	2611	211.222716569926	323
5	2638	213.22768577061	324
5	2638	213.22768577061	325
5	2638	213.22768577061	326
5	2663	215.303918727145	327
5	2663	215.303918727145	328
5	2663	215.303918727145	329
5	2686	216.310931990192	330
5	2686	216.310931990192	331
5	2686	216.310931990192	332
5	2705	217.817486128432	333
5	2705	217.817486128432	334
5	2705	217.817486128432	335
5	2732	219.610674400284	336
5	2732	219.610674400284	337
5	2732	219.610674400284	338
5	2753	221.337265921398	339
5	2753	221.337265921398	340
5	2753	221.337265921398	341
5	2774	223.12255819842	342
5	2774	223.12255819842	343
5	2774	223.12255819842	344
5	2794	224.291646477591	345
5	2794	224.291646477591	346
5	2794	224.291646477591	347
5	2816	225.850662406913	348
5	2816	225.850662406913	349
5	2816	225.850662406913	350
5	2840	226.971899981645	351
5	2840	226.971899981645	352
5	2840	226.971899981645	353
5	2859	228.140432365284	354
5	2859	228.140432365284	355
5	2859	228.140432365284	356
5	2880	229.267111918334	357
5	2880	229.267111918334	358
5	2880	229.267111918334	359
5	2903	231.221920984992	360
5	2903	231.221920984992	361
5	2903	231.221920984992	362
5	2927	232.318601076265	363
5	2927	232.318601076265	364
5	2927	232.318601076265	365
5	2951	234.277340367982	366
5	2951	234.277340367982	367
5	2951	234.277340367982	368
5	2974	237.151572333107	369
5	2974	237.151572333107	370
5	2974	237.151572333107	371
5	3003	238.745446897784	372
5	3003	238.745446897784	373
5	3003	238.745446897784	374
6	23	0.200616336646	0
6	41	1.794422255105	1
6	64	5.012206796932	2
6	90	6.731294483632	3
6	117	8.359840367349	4
6	135	10.090006434479	5
6	163	11.338520445911	6
6	180	13.219848928238	7
6	209	14.288295903984	8
6	232	16.163193033795	9
6	255	17.702832985506	10
6	278	18.953190151344	11
6	301	20.702292560325	12
6	326	23.724704120616	13
6	349	24.851266116878	14
6	370	26.232146428461	15
6	412	30.369397953619	16
6	443	31.822390127925	17
6	489	34.540412370032	18
6	504	36.26709313818	19
6	532	37.650923364674	20
6	555	38.765114202278	21
6	578	40.470093344256	22
6	597	42.066234902761	23
6	619	43.349507634241	24
6	667	48.481420752373	25
6	710	51.754706423902	26
6	736	53.250364242846	27
6	757	54.329519868442	28
6	782	55.799503017717	29
6	799	57.61492962018	30
6	879	68.885327992758	31
6	905	70.142695588836	32
6	928	71.507969244942	33
6	974	77.847283155903	34
6	997	79.844060364055	35
6	1022	81.83390477382	36
6	1047	83.214746577115	37
6	1093	85.601926616843	38
6	1109	86.690145278775	39
6	1136	88.539767722958	40
6	1208	95.909528970733	41
6	1231	97.411670148144	42
6	1250	98.731214344617	43
6	1277	100.321934656139	44
6	1300	101.613351333129	45
6	1329	104.952436983592	46
6	1379	107.577165787975	47
6	1402	109.430722407902	48
6	1421	114.118769732933	49
6	1452	115.380452721137	50
6	1475	116.604475828561	51
6	1498	117.826249507733	52
6	1517	118.907465622288	53
6	1544	120.721621216788	54
6	1588	125.673173276141	55
6	1611	127.488490534182	56
6	1634	129.101724914012	57
6	1680	132.436946111737	58
6	1707	136.897519336473	59
6	1730	140.477297669965	60
6	1752	142.165810622727	61
6	1778	143.433415681726	62
6	1798	145.334026264097	63
6	1844	148.640902113738	64
6	1867	149.66734288095	65
6	1890	150.727792368179	66
6	1913	152.178157569974	67
6	1955	155.2100768889	68
6	1986	160.207756640019	69
6	2005	161.92570964552	70
6	2033	167.014214172457	71
6	2059	168.074764145897	72
6	2082	169.299865477695	73
6	2102	170.752959623789	74
6	2124	172.217247987403	75
6	2151	176.358412051465	76
6	2174	178.308657325337	77
6	2194	179.533064987535	78
6	2220	181.465315648265	79
6	2243	182.995419622702	80
6	2282	186.857933283934	81
6	2308	188.278855554289	82
6	2353	192.950439645606	83
6	2372	194.050688571265	84
6	2395	195.273026852874	85
6	2422	197.029264070695	86
6	2445	198.340873177961	87
6	2487	201.369228082446	88
6	2505	202.462012094115	89
6	2530	204.334625494107	90
6	2592	209.289375644583	91
6	2615	211.232716569926	92
6	2641	213.23768577061	93
6	2666	215.313918727145	94
6	2689	216.320931990192	95
6	2735	219.620674400284	96
6	2758	221.347265921398	97
6	2800	224.301646477591	98
6	2819	225.860662406913	99
6	2866	228.150432365284	100
6	2886	229.277111918334	101
6	2912	231.231920984992	102
6	2931	232.328601076265	103
6	2958	234.287340367982	104
6	2983	237.161572333107	105
6	3006	238.755446897784	106

