version 2
run General-2-20230921-21:39:55-6137
attr configname General
attr datetime 20230921-21:39:55
attr experiment General
attr inifile omnetpp.ini
attr iterationvars ""
attr iterationvarsf ""
attr measurement ""
attr network Network2
attr processid 6137
attr repetition 2
attr replication #2
attr resultdir results
attr runnumber 2
attr seedset 2
param Network2.node[*].transmissionTime "uniform(1s, 2s)"
param Network2.node[*].delayTime "uniform(0.01s, 0.2s)"
param Network2.node[*].processingTime exponential(0.01s)
param Network2.node[*].lossProbability 0.2

vector 0 Network2.node[0] txVector ETV
vector 1 Network2.node[1] txVector ETV
vector 2 Network2.node[3] txVector ETV
vector 3 Network2.node[2] txVector ETV
vector 4 Network2.node[4] txVector ETV
vector 5 Network2.node[6] txVector ETV
vector 6 Network2.node[5] rxVector ETV
0	1	0.092839031499	0
0	3	1.277921112972	1
0	26	3.20946197656	2
0	49	4.723040094385	3
0	72	6.217329862313	4
0	95	8.01096731496	5
0	118	9.478809806536	6
0	141	11.449390121288	7
0	164	13.333861720533	8
0	187	14.996063742571	9
0	210	16.799515871814	10
0	233	18.342861104774	11
0	235	20.239234981144	12
0	258	22.077065529086	13
0	281	23.264352073212	14
0	283	24.426047506061	15
0	306	25.645337478974	16
0	313	27.235119470413	17
0	336	28.593359778187	18
0	356	30.018727073696	19
0	379	31.521505821281	20
0	402	33.348959171696	21
0	425	34.855045999883	22
0	448	36.273953312094	23
0	471	37.317082348996	24
0	494	38.491525172507	25
0	517	39.737778763771	26
0	540	40.944397514937	27
0	542	42.03218507233	28
0	565	43.591135865328	29
0	588	44.632381816412	30
0	590	46.121683110268	31
0	613	47.3824031281	32
0	615	48.713060031896	33
0	638	49.857480495721	34
0	657	51.391582191475	35
0	680	52.898354030233	36
0	703	54.221882545874	37
0	726	55.873376385794	38
0	749	57.206136339829	39
0	751	58.847709208979	40
0	753	60.045709099873	41
0	776	61.247608602532	42
0	799	62.514234495601	43
0	822	64.00289102762	44
0	845	65.156957148593	45
0	868	67.137120719552	46
0	870	68.780449180417	47
0	872	70.323767823186	48
0	895	72.285158013944	49
0	918	73.639552293597	50
0	941	75.57994984488	51
0	964	76.680536329765	52
0	987	78.317099743076	53
0	1010	79.947938860413	54
0	1033	81.926522442857	55
0	1035	83.644886583807	56
0	1058	85.604599096132	57
0	1081	86.618502919115	58
0	1083	88.097448732257	59
0	1106	89.218289481728	60
0	1129	90.305545100496	61
0	1152	91.464389876948	62
0	1175	93.22725135672	63
0	1198	94.480060571126	64
0	1221	95.676577787168	65
0	1244	97.48542239519	66
0	1267	98.538498632863	67
0	1269	99.74471505617	68
0	1292	100.941065679092	69
0	1315	102.042175678091	70
0	1338	103.051895074567	71
0	1361	104.307916491313	72
0	1363	105.732146541143	73
0	1386	107.13834182501	74
0	1409	108.315923901994	75
0	1432	109.903775138568	76
0	1442	111.842206163119	77
0	1465	113.441606237573	78
0	1488	115.015150600366	79
0	1511	116.268401536179	80
0	1534	117.512902169741	81
0	1557	119.495166837025	82
0	1580	121.154915023615	83
0	1603	122.499479022363	84
0	1626	123.963682261316	85
0	1649	125.711313099388	86
0	1672	126.959359745981	87
0	1695	128.526023213772	88
0	1718	130.111799438039	89
0	1720	131.733984683894	90
0	1722	132.918488952818	91
0	1741	134.479620647172	92
0	1764	135.544203405057	93
0	1787	136.650066052352	94
0	1810	137.693405897611	95
0	1833	139.417349347633	96
0	1835	140.631102588282	97
0	1837	142.482379857239	98
0	1860	144.241359756815	99
0	1883	145.515477246859	100
0	1906	147.119703723838	101
0	1929	148.971887099346	102
0	1952	150.550359569512	103
0	1972	152.046910449186	104
0	1995	153.241020410111	105
0	2018	154.3477364965	106
0	2041	155.708259196042	107
0	2064	157.14076077591	108
0	2087	158.217446391027	109
0	2089	159.685242556989	110
0	2112	161.542545495111	111
0	2114	162.995802099606	112
0	2116	164.711341674462	113
0	2139	166.681205671536	114
0	2162	168.340412009996	115
0	2185	169.935617836215	116
0	2208	171.537447239062	117
0	2210	173.174219499598	118
0	2229	174.199240318523	119
0	2252	175.322946904018	120
0	2275	177.200575764082	121
0	2298	178.81832808957	122
0	2321	180.072384785419	123
0	2323	181.189169626241	124
0	2325	183.117567200936	125
0	2348	184.853067023005	126
0	2371	186.343390855496	127
0	2394	187.477811124665	128
0	2417	189.456717299088	129
0	2440	191.12559454774	130
0	2463	192.182467407803	131
0	2486	193.760995552898	132
0	2509	195.731861179252	133
0	2511	196.811041230359	134
0	2534	197.870806629094	135
0	2557	198.929779732623	136
0	2580	200.223643017025	137
0	2600	201.368903429504	138
0	2623	203.252368082549	139
0	2646	204.386201334443	140
0	2669	205.471736012982	141
0	2692	207.398896654626	142
0	2694	208.656255347212	143
0	2696	210.2377305364	144
0	2698	211.804384991782	145
0	2721	213.727275057253	146
0	2744	215.118211067072	147
0	2767	216.147719556489	148
0	2786	217.191800645343	149
0	2788	219.173850619025	150
0	2811	220.622157241474	151
0	2813	221.749213412427	152
0	2836	223.520978350448	153
0	2859	225.455196584831	154
0	2882	226.458400192228	155
0	2884	228.083941578423	156
0	2907	229.088469703705	157
0	2909	230.200012929528	158
0	2932	231.39527697491	159
0	2934	232.503156566783	160
0	2957	234.168098153803	161
0	2980	236.025388878095	162
0	2982	237.871742116544	163
0	3005	239.531961889496	164
1	5	1.317434556699	0
1	5	1.317434556699	1
1	5	1.317434556699	2
1	5	1.317434556699	3
1	28	3.22150077773	4
1	28	3.22150077773	5
1	28	3.22150077773	6
1	28	3.22150077773	7
1	51	4.741381791554	8
1	51	4.741381791554	9
1	51	4.741381791554	10
1	51	4.741381791554	11
1	74	6.236004967583	12
1	74	6.236004967583	13
1	74	6.236004967583	14
1	74	6.236004967583	15
1	97	8.024171754298	16
1	97	8.024171754298	17
1	97	8.024171754298	18
1	97	8.024171754298	19
1	120	9.504917111539	20
1	120	9.504917111539	21
1	120	9.504917111539	22
1	120	9.504917111539	23
1	143	11.467456278192	24
1	143	11.467456278192	25
1	143	11.467456278192	26
1	143	11.467456278192	27
1	166	13.348764166394	28
1	166	13.348764166394	29
1	166	13.348764166394	30
1	166	13.348764166394	31
1	189	15.008669418898	32
1	189	15.008669418898	33
1	189	15.008669418898	34
1	189	15.008669418898	35
1	212	16.812011233706	36
1	212	16.812011233706	37
1	212	16.812011233706	38
1	212	16.812011233706	39
1	237	20.256923471171	40
1	237	20.256923471171	41
1	237	20.256923471171	42
1	237	20.256923471171	43
1	260	22.088066915815	44
1	260	22.088066915815	45
1	260	22.088066915815	46
1	260	22.088066915815	47
1	285	24.454158008598	48
1	285	24.454158008598	49
1	285	24.454158008598	50
1	285	24.454158008598	51
1	308	25.65587383643	52
1	308	25.65587383643	53
1	308	25.65587383643	54
1	308	25.65587383643	55
1	315	27.245311147008	56
1	315	27.245311147008	57
1	315	27.245311147008	58
1	315	27.245311147008	59
1	338	28.609239981838	60
1	338	28.609239981838	61
1	338	28.609239981838	62
1	338	28.609239981838	63
1	358	30.060134098687	64
1	358	30.060134098687	65
1	358	30.060134098687	66
1	358	30.060134098687	67
1	381	31.539264541977	68
1	381	31.539264541977	69
1	381	31.539264541977	70
1	381	31.539264541977	71
1	404	33.361428678537	72
1	404	33.361428678537	73
1	404	33.361428678537	74
1	404	33.361428678537	75
1	427	34.865756655639	76
1	427	34.865756655639	77
1	427	34.865756655639	78
1	427	34.865756655639	79
1	450	36.285087097841	80
1	450	36.285087097841	81
1	450	36.285087097841	82
1	450	36.285087097841	83
1	473	37.328691977769	84
1	473	37.328691977769	85
1	473	37.328691977769	86
1	473	37.328691977769	87
1	496	38.517143266182	88
1	496	38.517143266182	89
1	496	38.517143266182	90
1	496	38.517143266182	91
1	519	39.753302349509	92
1	519	39.753302349509	93
1	519	39.753302349509	94
1	519	39.753302349509	95
1	544	42.044183618753	96
1	544	42.044183618753	97
1	544	42.044183618753	98
1	544	42.044183618753	99
1	567	43.604419616604	100
1	567	43.604419616604	101
1	567	43.604419616604	102
1	567	43.604419616604	103
1	592	46.136835428858	104
1	592	46.136835428858	105
1	592	46.136835428858	106
1	592	46.136835428858	107
1	617	48.741184360652	108
1	617	48.741184360652	109
1	617	48.741184360652	110
1	617	48.741184360652	111
1	640	49.867925132938	112
1	640	49.867925132938	113
1	640	49.867925132938	114
1	640	49.867925132938	115
1	659	51.406581117927	116
1	659	51.406581117927	117
1	659	51.406581117927	118
1	659	51.406581117927	119
1	682	52.910731496569	120
1	682	52.910731496569	121
1	682	52.910731496569	122
1	682	52.910731496569	123
1	705	54.232935761493	124
1	705	54.232935761493	125
1	705	54.232935761493	126
1	705	54.232935761493	127
1	728	55.887034475027	128
1	728	55.887034475027	129
1	728	55.887034475027	130
1	728	55.887034475027	131
1	755	60.079467050363	132
1	755	60.079467050363	133
1	755	60.079467050363	134
1	755	60.079467050363	135
1	778	61.273863049402	136
1	778	61.273863049402	137
1	778	61.273863049402	138
1	778	61.273863049402	139
1	801	62.534037433026	140
1	801	62.534037433026	141
1	801	62.534037433026	142
1	801	62.534037433026	143
1	824	64.026681634616	144
1	824	64.026681634616	145
1	824	64.026681634616	146
1	824	64.026681634616	147
1	847	65.17016627502	148
1	847	65.17016627502	149
1	847	65.17016627502	150
1	847	65.17016627502	151
1	874	70.34190897244	152
1	874	70.34190897244	153
1	874	70.34190897244	154
1	874	70.34190897244	155
1	897	72.297292448196	156
1	897	72.297292448196	157
1	897	72.297292448196	158
1	897	72.297292448196	159
1	920	73.655582024894	160
1	920	73.655582024894	161
1	920	73.655582024894	162
1	920	73.655582024894	163
1	943	75.593595596346	164
1	943	75.593595596346	165
1	943	75.593595596346	166
1	943	75.593595596346	167
1	966	76.692584995459	168
1	966	76.692584995459	169
1	966	76.692584995459	170
1	966	76.692584995459	171
1	989	78.332915862585	172
1	989	78.332915862585	173
1	989	78.332915862585	174
1	989	78.332915862585	175
1	1012	79.963288864525	176
1	1012	79.963288864525	177
1	1012	79.963288864525	178
1	1012	79.963288864525	179
1	1037	83.684763328106	180
1	1037	83.684763328106	181
1	1037	83.684763328106	182
1	1037	83.684763328106	183
1	1060	85.621656453704	184
1	1060	85.621656453704	185
1	1060	85.621656453704	186
1	1060	85.621656453704	187
1	1085	88.109800860925	188
1	1085	88.109800860925	189
1	1085	88.109800860925	190
1	1085	88.109800860925	191
1	1108	89.246379701562	192
1	1108	89.246379701562	193
1	1108	89.246379701562	194
1	1108	89.246379701562	195
1	1131	90.335514942225	196
1	1131	90.335514942225	197
1	1131	90.335514942225	198
1	1131	90.335514942225	199
1	1154	91.486415837215	200
1	1154	91.486415837215	201
1	1154	91.486415837215	202
1	1154	91.486415837215	203
1	1177	93.242482795616	204
1	1177	93.242482795616	205
1	1177	93.242482795616	206
1	1177	93.242482795616	207
1	1200	94.493827426641	208
1	1200	94.493827426641	209
1	1200	94.493827426641	210
1	1200	94.493827426641	211
1	1223	95.704250431466	212
1	1223	95.704250431466	213
1	1223	95.704250431466	214
1	1223	95.704250431466	215
1	1246	97.496622077086	216
1	1246	97.496622077086	217
1	1246	97.496622077086	218
1	1246	97.496622077086	219
1	1271	99.767334377768	220
1	1271	99.767334377768	221
1	1271	99.767334377768	222
1	1271	99.767334377768	223
1	1294	100.959966541098	224
1	1294	100.959966541098	225
1	1294	100.959966541098	226
1	1294	100.959966541098	227
1	1317	102.052196321798	228
1	1317	102.052196321798	229
1	1317	102.052196321798	230
1	1317	102.052196321798	231
1	1340	103.08555814071	232
1	1340	103.08555814071	233
1	1340	103.08555814071	234
1	1340	103.08555814071	235
1	1365	105.744738059222	236
1	1365	105.744738059222	237
1	1365	105.744738059222	238
1	1365	105.744738059222	239
1	1388	107.161183748684	240
1	1388	107.161183748684	241
1	1388	107.161183748684	242
1	1388	107.161183748684	243
1	1411	108.331501930697	244
1	1411	108.331501930697	245
1	1411	108.331501930697	246
1	1411	108.331501930697	247
1	1434	109.945275523716	248
1	1434	109.945275523716	249
1	1434	109.945275523716	250
1	1434	109.945275523716	251
1	1444	111.858782590987	252
1	1444	111.858782590987	253
1	1444	111.858782590987	254
1	1444	111.858782590987	255
1	1467	113.46587796478	256
1	1467	113.46587796478	257
1	1467	113.46587796478	258
1	1467	113.46587796478	259
1	1490	115.031472112218	260
1	1490	115.031472112218	261
1	1490	115.031472112218	262
1	1490	115.031472112218	263
1	1513	116.289722208874	264
1	1513	116.289722208874	265
1	1513	116.289722208874	266
1	1513	116.289722208874	267
1	1536	117.526985102159	268
1	1536	117.526985102159	269
1	1536	117.526985102159	270
1	1536	117.526985102159	271
1	1559	119.50787262988	272
1	1559	119.50787262988	273
1	1559	119.50787262988	274
1	1559	119.50787262988	275
1	1582	121.177020881167	276
1	1582	121.177020881167	277
1	1582	121.177020881167	278
1	1582	121.177020881167	279
1	1605	122.51528085308	280
1	1605	122.51528085308	281
1	1605	122.51528085308	282
1	1605	122.51528085308	283
1	1628	123.979404782331	284
1	1628	123.979404782331	285
1	1628	123.979404782331	286
1	1628	123.979404782331	287
1	1651	125.722811897953	288
1	1651	125.722811897953	289
1	1651	125.722811897953	290
1	1651	125.722811897953	291
1	1674	126.972596219022	292
1	1674	126.972596219022	293
1	1674	126.972596219022	294
1	1674	126.972596219022	295
1	1697	128.540071299821	296
1	1697	128.540071299821	297
1	1697	128.540071299821	298
1	1697	128.540071299821	299
1	1724	132.934462577491	300
1	1724	132.934462577491	301
1	1724	132.934462577491	302
1	1724	132.934462577491	303
1	1743	134.502526913925	304
1	1743	134.502526913925	305
1	1743	134.502526913925	306
1	1743	134.502526913925	307
1	1766	135.565237548164	308
1	1766	135.565237548164	309
1	1766	135.565237548164	310
1	1766	135.565237548164	311
1	1789	136.662598538576	312
1	1789	136.662598538576	313
1	1789	136.662598538576	314
1	1789	136.662598538576	315
1	1812	137.704794727547	316
1	1812	137.704794727547	317
1	1812	137.704794727547	318
1	1812	137.704794727547	319
1	1839	142.497103234339	320
1	1839	142.497103234339	321
1	1839	142.497103234339	322
1	1839	142.497103234339	323
1	1862	144.267593718543	324
1	1862	144.267593718543	325
1	1862	144.267593718543	326
1	1862	144.267593718543	327
1	1885	145.529033381119	328
1	1885	145.529033381119	329
1	1885	145.529033381119	330
1	1885	145.529033381119	331
1	1908	147.17273855714	332
1	1908	147.17273855714	333
1	1908	147.17273855714	334
1	1908	147.17273855714	335
1	1931	149.009541909435	336
1	1931	149.009541909435	337
1	1931	149.009541909435	338
1	1931	149.009541909435	339
1	1954	150.561327934243	340
1	1954	150.561327934243	341
1	1954	150.561327934243	342
1	1954	150.561327934243	343
1	1974	152.062515928799	344
1	1974	152.062515928799	345
1	1974	152.062515928799	346
1	1974	152.062515928799	347
1	1997	153.254658178417	348
1	1997	153.254658178417	349
1	1997	153.254658178417	350
1	1997	153.254658178417	351
1	2020	154.359864840723	352
1	2020	154.359864840723	353
1	2020	154.359864840723	354
1	2020	154.359864840723	355
1	2043	155.726618498183	356
1	2043	155.726618498183	357
1	2043	155.726618498183	358
1	2043	155.726618498183	359
1	2066	157.154253832526	360
1	2066	157.154253832526	361
1	2066	157.154253832526	362
1	2066	157.154253832526	363
1	2091	159.697332309056	364
1	2091	159.697332309056	365
1	2091	159.697332309056	366
1	2091	159.697332309056	367
1	2118	164.721555091152	368
1	2118	164.721555091152	369
1	2118	164.721555091152	370
1	2118	164.721555091152	371
1	2141	166.695463486879	372
1	2141	166.695463486879	373
1	2141	166.695463486879	374
1	2141	166.695463486879	375
1	2164	168.352330442082	376
1	2164	168.352330442082	377
1	2164	168.352330442082	378
1	2164	168.352330442082	379
1	2187	169.965125282489	380
1	2187	169.965125282489	381
1	2187	169.965125282489	382
1	2187	169.965125282489	383
1	2212	173.186694897303	384
1	2212	173.186694897303	385
1	2212	173.186694897303	386
1	2212	173.186694897303	387
1	2231	174.236211700491	388
1	2231	174.236211700491	389
1	2231	174.236211700491	390
1	2231	174.236211700491	391
1	2254	175.333369697159	392
1	2254	175.333369697159	393
1	2254	175.333369697159	394
1	2254	175.333369697159	395
1	2277	177.21210963816	396
1	2277	177.21210963816	397
1	2277	177.21210963816	398
1	2277	177.21210963816	399
1	2300	178.84771178074	400
1	2300	178.84771178074	401
1	2300	178.84771178074	402
1	2300	178.84771178074	403
1	2327	183.131919774267	404
1	2327	183.131919774267	405
1	2327	183.131919774267	406
1	2327	183.131919774267	407
1	2350	184.870471798408	408
1	2350	184.870471798408	409
1	2350	184.870471798408	410
1	2350	184.870471798408	411
1	2373	186.354107540408	412
1	2373	186.354107540408	413
1	2373	186.354107540408	414
1	2373	186.354107540408	415
1	2396	187.488553425791	416
1	2396	187.488553425791	417
1	2396	187.488553425791	418
1	2396	187.488553425791	419
1	2419	189.471650519494	420
1	2419	189.471650519494	421
1	2419	189.471650519494	422
1	2419	189.471650519494	423
1	2442	191.156036110827	424
1	2442	191.156036110827	425
1	2442	191.156036110827	426
1	2442	191.156036110827	427
1	2465	192.203330138626	428
1	2465	192.203330138626	429
1	2465	192.203330138626	430
1	2465	192.203330138626	431
1	2488	193.774950002621	432
1	2488	193.774950002621	433
1	2488	193.774950002621	434
1	2488	193.774950002621	435
1	2513	196.822476839729	436
1	2513	196.822476839729	437
1	2513	196.822476839729	438
1	2513	196.822476839729	439
1	2536	197.899896739835	440
1	2536	197.899896739835	441
1	2536	197.899896739835	442
1	2536	197.899896739835	443
1	2559	198.941174768217	444
1	2559	198.941174768217	445
1	2559	198.941174768217	446
1	2559	198.941174768217	447
1	2582	200.242587434257	448
1	2582	200.242587434257	449
1	2582	200.242587434257	450
1	2582	200.242587434257	451
1	2602	201.397666267049	452
1	2602	201.397666267049	453
1	2602	201.397666267049	454
1	2602	201.397666267049	455
1	2625	203.264306116584	456
1	2625	203.264306116584	457
1	2625	203.264306116584	458
1	2625	203.264306116584	459
1	2648	204.397856891351	460
1	2648	204.397856891351	461
1	2648	204.397856891351	462
1	2648	204.397856891351	463
1	2671	205.482836410299	464
1	2671	205.482836410299	465
1	2671	205.482836410299	466
1	2671	205.482836410299	467
1	2700	211.818297113699	468
1	2700	211.818297113699	469
1	2700	211.818297113699	470
1	2700	211.818297113699	471
1	2723	213.744734008653	472
1	2723	213.744734008653	473
1	2723	213.744734008653	474
1	2723	213.744734008653	475
1	2746	215.128602538569	476
1	2746	215.128602538569	477
1	2746	215.128602538569	478
1	2746	215.128602538569	479
1	2769	216.171274584454	480
1	2769	216.171274584454	481
1	2769	216.171274584454	482
1	2769	216.171274584454	483
1	2790	219.196962388259	484
1	2790	219.196962388259	485
1	2790	219.196962388259	486
1	2790	219.196962388259	487
1	2815	221.770180457699	488
1	2815	221.770180457699	489
1	2815	221.770180457699	490
1	2815	221.770180457699	491
1	2838	223.531357644654	492
1	2838	223.531357644654	493
1	2838	223.531357644654	494
1	2838	223.531357644654	495
1	2861	225.473493365074	496
1	2861	225.473493365074	497
1	2861	225.473493365074	498
1	2861	225.473493365074	499
1	2886	228.110421880602	500
1	2886	228.110421880602	501
1	2886	228.110421880602	502
1	2886	228.110421880602	503
1	2911	230.21023382836	504
1	2911	230.21023382836	505
1	2911	230.21023382836	506
1	2911	230.21023382836	507
1	2936	232.518707906338	508
1	2936	232.518707906338	509
1	2936	232.518707906338	510
1	2936	232.518707906338	511
1	2959	234.178264046373	512
1	2959	234.178264046373	513
1	2959	234.178264046373	514
1	2959	234.178264046373	515
1	2984	237.898831304111	516
1	2984	237.898831304111	517
1	2984	237.898831304111	518
1	2984	237.898831304111	519
2	10	1.331444330932	0
2	10	1.331444330932	1
2	10	1.331444330932	2
2	35	3.239401926024	3
2	35	3.239401926024	4
2	35	3.239401926024	5
2	57	4.753870331639	6
2	57	4.753870331639	7
2	57	4.753870331639	8
2	88	6.300434548139	9
2	88	6.300434548139	10
2	88	6.300434548139	11
2	102	8.035028367231	12
2	102	8.035028367231	13
2	102	8.035028367231	14
2	125	9.52147604468	15
2	125	9.52147604468	16
2	125	9.52147604468	17
2	155	11.495295197188	18
2	155	11.495295197188	19
2	155	11.495295197188	20
2	174	13.376272338343	21
2	174	13.376272338343	22
2	174	13.376272338343	23
2	196	15.029501179069	24
2	196	15.029501179069	25
2	196	15.029501179069	26
2	218	16.838017035716	27
2	218	16.838017035716	28
2	218	16.838017035716	29
2	244	20.278947232721	30
2	244	20.278947232721	31
2	244	20.278947232721	32
2	266	22.105613337612	33
2	266	22.105613337612	34
2	266	22.105613337612	35
2	298	24.487880865579	36
2	298	24.487880865579	37
2	298	24.487880865579	38
2	329	27.276365247508	39
2	329	27.276365247508	40
2	329	27.276365247508	41
2	343	28.623150918612	42
2	343	28.623150918612	43
2	343	28.623150918612	44
2	363	30.081439455589	45
2	363	30.081439455589	46
2	363	30.081439455589	47
2	386	31.552594945758	48
2	386	31.552594945758	49
2	386	31.552594945758	50
2	409	33.376838713608	51
2	409	33.376838713608	52
2	409	33.376838713608	53
2	432	34.878322316774	54
2	432	34.878322316774	55
2	432	34.878322316774	56
2	455	36.309193501471	57
2	455	36.309193501471	58
2	455	36.309193501471	59
2	478	37.338707397004	60
2	478	37.338707397004	61
2	478	37.338707397004	62
2	508	38.550882175907	63
2	508	38.550882175907	64
2	508	38.550882175907	65
2	532	39.775880678132	66
2	532	39.775880678132	67
2	532	39.775880678132	68
2	549	42.055244734033	69
2	549	42.055244734033	70
2	549	42.055244734033	71
2	584	43.647908920209	72
2	584	43.647908920209	73
2	584	43.647908920209	74
2	603	46.159386404727	75
2	603	46.159386404727	76
2	603	46.159386404727	77
2	631	48.790844039191	78
2	631	48.790844039191	79
2	631	48.790844039191	80
2	647	49.885110004332	81
2	647	49.885110004332	82
2	647	49.885110004332	83
2	665	51.417612086426	84
2	665	51.417612086426	85
2	665	51.417612086426	86
2	695	52.952487392465	87
2	695	52.952487392465	88
2	695	52.952487392465	89
2	710	54.243468652783	90
2	710	54.243468652783	91
2	710	54.243468652783	92
2	740	55.919577364345	93
2	740	55.919577364345	94
2	740	55.919577364345	95
2	761	60.093421034346	96
2	761	60.093421034346	97
2	761	60.093421034346	98
2	784	61.298468952709	99
2	784	61.298468952709	100
2	784	61.298468952709	101
2	807	62.550876572389	102
2	807	62.550876572389	103
2	807	62.550876572389	104
2	829	64.037609909675	105
2	829	64.037609909675	106
2	829	64.037609909675	107
2	857	65.193593676714	108
2	857	65.193593676714	109
2	857	65.193593676714	110
2	891	70.395193969564	111
2	891	70.395193969564	112
2	891	70.395193969564	113
2	914	72.350930966332	114
2	914	72.350930966332	115
2	914	72.350930966332	116
2	927	73.677310878264	117
2	927	73.677310878264	118
2	927	73.677310878264	119
2	948	75.612034754185	120
2	948	75.612034754185	121
2	948	75.612034754185	122
2	971	76.702874223809	123
2	971	76.702874223809	124
2	971	76.702874223809	125
2	1000	78.353811632554	126
2	1000	78.353811632554	127
2	1000	78.353811632554	128
2	1022	79.996540614683	129
2	1022	79.996540614683	130
2	1022	79.996540614683	131
2	1043	83.699418737414	132
2	1043	83.699418737414	133
2	1043	83.699418737414	134
2	1065	85.632387434769	135
2	1065	85.632387434769	136
2	1065	85.632387434769	137
2	1091	88.133800203588	138
2	1091	88.133800203588	139
2	1091	88.133800203588	140
2	1113	89.262782752195	141
2	1113	89.262782752195	142
2	1113	89.262782752195	143
2	1145	90.371875730826	144
2	1145	90.371875730826	145
2	1145	90.371875730826	146
2	1171	91.555344893731	147
2	1171	91.555344893731	148
2	1171	91.555344893731	149
2	1194	93.286702912104	150
2	1194	93.286702912104	151
2	1194	93.286702912104	152
2	1206	94.514121424758	153
2	1206	94.514121424758	154
2	1206	94.514121424758	155
2	1228	95.715411364701	156
2	1228	95.715411364701	157
2	1228	95.715411364701	158
2	1256	97.524020039455	159
2	1256	97.524020039455	160
2	1256	97.524020039455	161
2	1284	99.808456793947	162
2	1284	99.808456793947	163
2	1284	99.808456793947	164
2	1301	100.972571725532	165
2	1301	100.972571725532	166
2	1301	100.972571725532	167
2	1326	102.096662196956	168
2	1326	102.096662196956	169
2	1326	102.096662196956	170
2	1345	103.095877659478	171
2	1345	103.095877659478	172
2	1345	103.095877659478	173
2	1371	105.760372203391	174
2	1371	105.760372203391	175
2	1371	105.760372203391	176
2	1405	107.201106227087	177
2	1405	107.201106227087	178
2	1405	107.201106227087	179
2	1417	108.34409065088	180
2	1417	108.34409065088	181
2	1417	108.34409065088	182
2	1449	111.869303496571	183
2	1449	111.869303496571	184
2	1449	111.869303496571	185
2	1472	113.477867238488	186
2	1472	113.477867238488	187
2	1472	113.477867238488	188
2	1496	115.053611578286	189
2	1496	115.053611578286	190
2	1496	115.053611578286	191
2	1527	116.322818100007	192
2	1527	116.322818100007	193
2	1527	116.322818100007	194
2	1543	117.543170823297	195
2	1543	117.543170823297	196
2	1543	117.543170823297	197
2	1565	119.529408004086	198
2	1565	119.529408004086	199
2	1565	119.529408004086	200
2	1588	121.195922042939	201
2	1588	121.195922042939	202
2	1588	121.195922042939	203
2	1610	122.528131416775	204
2	1610	122.528131416775	205
2	1610	122.528131416775	206
2	1633	123.991267313464	207
2	1633	123.991267313464	208
2	1633	123.991267313464	209
2	1660	125.750005410593	210
2	1660	125.750005410593	211
2	1660	125.750005410593	212
2	1691	127.020863748302	213
2	1691	127.020863748302	214
2	1691	127.020863748302	215
2	1708	128.575384562672	216
2	1708	128.575384562672	217
2	1708	128.575384562672	218
2	1737	132.962338496923	219
2	1737	132.962338496923	220
2	1737	132.962338496923	221
2	1749	134.517642743097	222
2	1749	134.517642743097	223
2	1749	134.517642743097	224
2	1771	135.575926662575	225
2	1771	135.575926662575	226
2	1771	135.575926662575	227
2	1802	136.696658690321	228
2	1802	136.696658690321	229
2	1802	136.696658690321	230
2	1818	137.725507413566	231
2	1818	137.725507413566	232
2	1818	137.725507413566	233
2	1852	142.542870705307	234
2	1852	142.542870705307	235
2	1852	142.542870705307	236
2	1868	144.282280307149	237
2	1868	144.282280307149	238
2	1868	144.282280307149	239
2	1892	145.544118738769	240
2	1892	145.544118738769	241
2	1892	145.544118738769	242
2	1913	147.191129307112	243
2	1913	147.191129307112	244
2	1913	147.191129307112	245
2	1936	149.023093443658	246
2	1936	149.023093443658	247
2	1936	149.023093443658	248
2	1960	150.57357019999	249
2	1960	150.57357019999	250
2	1960	150.57357019999	251
2	1980	152.079228422409	252
2	1980	152.079228422409	253
2	1980	152.079228422409	254
2	2010	153.286625053809	255
2	2010	153.286625053809	256
2	2010	153.286625053809	257
2	2026	154.375924073831	258
2	2026	154.375924073831	259
2	2026	154.375924073831	260
2	2050	155.746497200005	261
2	2050	155.746497200005	262
2	2050	155.746497200005	263
2	2072	157.170214946755	264
2	2072	157.170214946755	265
2	2072	157.170214946755	266
2	2098	159.718440084015	267
2	2098	159.718440084015	268
2	2098	159.718440084015	269
2	2124	164.735264124638	270
2	2124	164.735264124638	271
2	2124	164.735264124638	272
2	2158	166.744366077813	273
2	2158	166.744366077813	274
2	2158	166.744366077813	275
2	2170	168.364282822543	276
2	2170	168.364282822543	277
2	2170	168.364282822543	278
2	2193	169.977391288791	279
2	2193	169.977391288791	280
2	2193	169.977391288791	281
2	2218	173.202198978478	282
2	2218	173.202198978478	283
2	2218	173.202198978478	284
2	2244	174.292967613317	285
2	2244	174.292967613317	286
2	2244	174.292967613317	287
2	2262	175.359623286318	288
2	2262	175.359623286318	289
2	2262	175.359623286318	290
2	2283	177.227604684397	291
2	2283	177.227604684397	292
2	2283	177.227604684397	293
2	2308	178.883223238964	294
2	2308	178.883223238964	295
2	2308	178.883223238964	296
2	2332	183.148236756871	297
2	2332	183.148236756871	298
2	2332	183.148236756871	299
2	2356	184.889375524056	300
2	2356	184.889375524056	301
2	2356	184.889375524056	302
2	2379	186.368337906315	303
2	2379	186.368337906315	304
2	2379	186.368337906315	305
2	2409	187.518297983155	306
2	2409	187.518297983155	307
2	2409	187.518297983155	308
2	2436	189.564871071674	309
2	2436	189.564871071674	310
2	2436	189.564871071674	311
2	2447	191.168511474472	312
2	2447	191.168511474472	313
2	2447	191.168511474472	314
2	2470	192.233927472983	315
2	2470	192.233927472983	316
2	2470	192.233927472983	317
2	2502	193.811910062576	318
2	2502	193.811910062576	319
2	2502	193.811910062576	320
2	2522	196.855064807448	321
2	2522	196.855064807448	322
2	2522	196.855064807448	323
2	2549	197.931199786661	324
2	2549	197.931199786661	325
2	2549	197.931199786661	326
2	2569	198.965234602015	327
2	2569	198.965234602015	328
2	2569	198.965234602015	329
2	2587	200.2533113723	330
2	2587	200.2533113723	331
2	2587	200.2533113723	332
2	2619	201.511324838696	333
2	2619	201.511324838696	334
2	2619	201.511324838696	335
2	2630	203.276316091791	336
2	2630	203.276316091791	337
2	2630	203.276316091791	338
2	2653	204.411161465149	339
2	2653	204.411161465149	340
2	2653	204.411161465149	341
2	2677	205.500368454835	342
2	2677	205.500368454835	343
2	2677	205.500368454835	344
2	2705	211.829392738903	345
2	2705	211.829392738903	346
2	2705	211.829392738903	347
2	2728	213.758842219743	348
2	2728	213.758842219743	349
2	2728	213.758842219743	350
2	2752	215.143914048189	351
2	2752	215.143914048189	352
2	2752	215.143914048189	353
2	2796	219.214030411625	354
2	2796	219.214030411625	355
2	2796	219.214030411625	356
2	2821	221.783973765183	357
2	2821	221.783973765183	358
2	2821	221.783973765183	359
2	2850	223.558668793836	360
2	2850	223.558668793836	361
2	2850	223.558668793836	362
2	2866	225.487962444228	363
2	2866	225.487962444228	364
2	2866	225.487962444228	365
2	2891	228.122392312268	366
2	2891	228.122392312268	367
2	2891	228.122392312268	368
2	2924	230.255546459584	369
2	2924	230.255546459584	370
2	2924	230.255546459584	371
2	2941	232.529838843015	372
2	2941	232.529838843015	373
2	2941	232.529838843015	374
2	2966	234.192168307526	375
2	2966	234.192168307526	376
2	2966	234.192168307526	377
2	2989	237.913906221538	378
2	2989	237.913906221538	379
2	2989	237.913906221538	380
3	11	1.332888171871	0
3	11	1.332888171871	1
3	11	1.332888171871	2
3	11	1.332888171871	3
3	33	3.23449155303	4
3	33	3.23449155303	5
3	33	3.23449155303	6
3	33	3.23449155303	7
3	56	4.752512870319	8
3	56	4.752512870319	9
3	56	4.752512870319	10
3	56	4.752512870319	11
3	82	6.282061043494	12
3	82	6.282061043494	13
3	82	6.282061043494	14
3	82	6.282061043494	15
3	104	8.042028944848	16
3	104	8.042028944848	17
3	104	8.042028944848	18
3	104	8.042028944848	19
3	126	9.527177319113	20
3	126	9.527177319113	21
3	126	9.527177319113	22
3	126	9.527177319113	23
3	148	11.482348385438	24
3	148	11.482348385438	25
3	148	11.482348385438	26
3	148	11.482348385438	27
3	175	13.383353698737	28
3	175	13.383353698737	29
3	175	13.383353698737	30
3	175	13.383353698737	31
3	195	15.028993225189	32
3	195	15.028993225189	33
3	195	15.028993225189	34
3	195	15.028993225189	35
3	219	16.838472830537	36
3	219	16.838472830537	37
3	219	16.838472830537	38
3	219	16.838472830537	39
3	243	20.274862162067	40
3	243	20.274862162067	41
3	243	20.274862162067	42
3	243	20.274862162067	43
3	269	22.113428414999	44
3	269	22.113428414999	45
3	269	22.113428414999	46
3	269	22.113428414999	47
3	291	24.477696475637	48
3	291	24.477696475637	49
3	291	24.477696475637	50
3	291	24.477696475637	51
3	320	27.257517951807	52
3	320	27.257517951807	53
3	320	27.257517951807	54
3	320	27.257517951807	55
3	347	28.633271577765	56
3	347	28.633271577765	57
3	347	28.633271577765	58
3	347	28.633271577765	59
3	364	30.081529293248	60
3	364	30.081529293248	61
3	364	30.081529293248	62
3	364	30.081529293248	63
3	387	31.560110682836	64
3	387	31.560110682836	65
3	387	31.560110682836	66
3	387	31.560110682836	67
3	416	33.392481222059	68
3	416	33.392481222059	69
3	416	33.392481222059	70
3	416	33.392481222059	71
3	437	34.896742049842	72
3	437	34.896742049842	73
3	437	34.896742049842	74
3	437	34.896742049842	75
3	460	36.331583441471	76
3	460	36.331583441471	77
3	460	36.331583441471	78
3	460	36.331583441471	79
3	485	37.350671315726	80
3	485	37.350671315726	81
3	485	37.350671315726	82
3	485	37.350671315726	83
3	501	38.533196063493	84
3	501	38.533196063493	85
3	501	38.533196063493	86
3	501	38.533196063493	87
3	524	39.764216697405	88
3	524	39.764216697405	89
3	524	39.764216697405	90
3	524	39.764216697405	91
3	557	42.07219964756	92
3	557	42.07219964756	93
3	557	42.07219964756	94
3	557	42.07219964756	95
3	572	43.624662236466	96
3	572	43.624662236466	97
3	572	43.624662236466	98
3	572	43.624662236466	99
3	597	46.148378546799	100
3	597	46.148378546799	101
3	597	46.148378546799	102
3	597	46.148378546799	103
3	623	48.774545381988	104
3	623	48.774545381988	105
3	623	48.774545381988	106
3	623	48.774545381988	107
3	645	49.878873383697	108
3	645	49.878873383697	109
3	645	49.878873383697	110
3	645	49.878873383697	111
3	664	51.417230787104	112
3	664	51.417230787104	113
3	664	51.417230787104	114
3	664	51.417230787104	115
3	688	52.937603667817	116
3	688	52.937603667817	117
3	688	52.937603667817	118
3	688	52.937603667817	119
3	715	54.260243735795	120
3	715	54.260243735795	121
3	715	54.260243735795	122
3	715	54.260243735795	123
3	733	55.897352498858	124
3	733	55.897352498858	125
3	733	55.897352498858	126
3	733	55.897352498858	127
3	768	60.106243239056	128
3	768	60.106243239056	129
3	768	60.106243239056	130
3	768	60.106243239056	131
3	783	61.294065599324	132
3	783	61.294065599324	133
3	783	61.294065599324	134
3	783	61.294065599324	135
3	808	62.551791012409	136
3	808	62.551791012409	137
3	808	62.551791012409	138
3	808	62.551791012409	139
3	830	64.038675518264	140
3	830	64.038675518264	141
3	830	64.038675518264	142
3	830	64.038675518264	143
3	852	65.180447639452	144
3	852	65.180447639452	145
3	852	65.180447639452	146
3	852	65.180447639452	147
3	880	70.361489043057	148
3	880	70.361489043057	149
3	880	70.361489043057	150
3	880	70.361489043057	151
3	905	72.32473461903	152
3	905	72.32473461903	153
3	905	72.32473461903	154
3	905	72.32473461903	155
3	926	73.671698813479	156
3	926	73.671698813479	157
3	926	73.671698813479	158
3	926	73.671698813479	159
3	953	75.627977027864	160
3	953	75.627977027864	161
3	953	75.627977027864	162
3	953	75.627977027864	163
3	972	76.704017989273	164
3	972	76.704017989273	165
3	972	76.704017989273	166
3	972	76.704017989273	167
3	994	78.343439929611	168
3	994	78.343439929611	169
3	994	78.343439929611	170
3	994	78.343439929611	171
3	1017	79.984346356782	172
3	1017	79.984346356782	173
3	1017	79.984346356782	174
3	1017	79.984346356782	175
3	1050	83.719650634575	176
3	1050	83.719650634575	177
3	1050	83.719650634575	178
3	1050	83.719650634575	179
3	1066	85.634888680014	180
3	1066	85.634888680014	181
3	1066	85.634888680014	182
3	1066	85.634888680014	183
3	1092	88.136689477792	184
3	1092	88.136689477792	185
3	1092	88.136689477792	186
3	1092	88.136689477792	187
3	1118	89.275919073526	188
3	1118	89.275919073526	189
3	1118	89.275919073526	190
3	1118	89.275919073526	191
3	1136	90.349960041539	192
3	1136	90.349960041539	193
3	1136	90.349960041539	194
3	1136	90.349960041539	195
3	1160	91.500037182526	196
3	1160	91.500037182526	197
3	1160	91.500037182526	198
3	1160	91.500037182526	199
3	1182	93.256633998488	200
3	1182	93.256633998488	201
3	1182	93.256633998488	202
3	1182	93.256633998488	203
3	1209	94.521804277667	204
3	1209	94.521804277667	205
3	1209	94.521804277667	206
3	1209	94.521804277667	207
3	1230	95.720471969884	208
3	1230	95.720471969884	209
3	1230	95.720471969884	210
3	1230	95.720471969884	211
3	1251	97.513628958163	212
3	1251	97.513628958163	213
3	1251	97.513628958163	214
3	1251	97.513628958163	215
3	1279	99.794867957897	216
3	1279	99.794867957897	217
3	1279	99.794867957897	218
3	1279	99.794867957897	219
3	1299	100.970133616775	220
3	1299	100.970133616775	221
3	1299	100.970133616775	222
3	1299	100.970133616775	223
3	1325	102.087090964865	224
3	1325	102.087090964865	225
3	1325	102.087090964865	226
3	1325	102.087090964865	227
3	1352	103.110988757355	228
3	1352	103.110988757355	229
3	1352	103.110988757355	230
3	1352	103.110988757355	231
3	1372	105.766941617058	232
3	1372	105.766941617058	233
3	1372	105.766941617058	234
3	1372	105.766941617058	235
3	1393	107.173582091965	236
3	1393	107.173582091965	237
3	1393	107.173582091965	238
3	1393	107.173582091965	239
3	1416	108.34161760604	240
3	1416	108.34161760604	241
3	1416	108.34161760604	242
3	1416	108.34161760604	243
3	1451	111.876814419064	244
3	1451	111.876814419064	245
3	1451	111.876814419064	246
3	1451	111.876814419064	247
3	1480	113.495913478448	248
3	1480	113.495913478448	249
3	1480	113.495913478448	250
3	1480	113.495913478448	251
3	1499	115.057127454821	252
3	1499	115.057127454821	253
3	1499	115.057127454821	254
3	1499	115.057127454821	255
3	1519	116.304196121899	256
3	1519	116.304196121899	257
3	1519	116.304196121899	258
3	1519	116.304196121899	259
3	1541	117.540410086124	260
3	1541	117.540410086124	261
3	1541	117.540410086124	262
3	1541	117.540410086124	263
3	1568	119.538390808296	264
3	1568	119.538390808296	265
3	1568	119.538390808296	266
3	1568	119.538390808296	267
3	1587	121.189138472662	268
3	1587	121.189138472662	269
3	1587	121.189138472662	270
3	1587	121.189138472662	271
3	1611	122.535616806901	272
3	1611	122.535616806901	273
3	1611	122.535616806901	274
3	1611	122.535616806901	275
3	1638	124.006566161764	276
3	1638	124.006566161764	277
3	1638	124.006566161764	278
3	1638	124.006566161764	279
3	1659	125.74925958003	280
3	1659	125.74925958003	281
3	1659	125.74925958003	282
3	1659	125.74925958003	283
3	1679	126.98866664581	284
3	1679	126.98866664581	285
3	1679	126.98866664581	286
3	1679	126.98866664581	287
3	1702	128.557957742112	288
3	1702	128.557957742112	289
3	1702	128.557957742112	290
3	1702	128.557957742112	291
3	1730	132.947446129289	292
3	1730	132.947446129289	293
3	1730	132.947446129289	294
3	1730	132.947446129289	295
3	1748	134.515828265981	296
3	1748	134.515828265981	297
3	1748	134.515828265981	298
3	1748	134.515828265981	299
3	1782	135.627244689785	300
3	1782	135.627244689785	301
3	1782	135.627244689785	302
3	1782	135.627244689785	303
3	1795	136.676173340309	304
3	1795	136.676173340309	305
3	1795	136.676173340309	306
3	1795	136.676173340309	307
3	1819	137.727943281328	308
3	1819	137.727943281328	309
3	1819	137.727943281328	310
3	1819	137.727943281328	311
3	1844	142.508205389271	312
3	1844	142.508205389271	313
3	1844	142.508205389271	314
3	1844	142.508205389271	315
3	1867	144.281279798904	316
3	1867	144.281279798904	317
3	1867	144.281279798904	318
3	1867	144.281279798904	319
3	1891	145.540390987923	320
3	1891	145.540390987923	321
3	1891	145.540390987923	322
3	1891	145.540390987923	323
3	1918	147.206828828557	324
3	1918	147.206828828557	325
3	1918	147.206828828557	326
3	1918	147.206828828557	327
3	1944	149.064259113231	328
3	1944	149.064259113231	329
3	1944	149.064259113231	330
3	1944	149.064259113231	331
3	1959	150.571685966795	332
3	1959	150.571685966795	333
3	1959	150.571685966795	334
3	1959	150.571685966795	335
3	1981	152.086928607646	336
3	1981	152.086928607646	337
3	1981	152.086928607646	338
3	1981	152.086928607646	339
3	2003	153.274382626015	340
3	2003	153.274382626015	341
3	2003	153.274382626015	342
3	2003	153.274382626015	343
3	2025	154.370534813193	344
3	2025	154.370534813193	345
3	2025	154.370534813193	346
3	2025	154.370534813193	347
3	2049	155.744010476867	348
3	2049	155.744010476867	349
3	2049	155.744010476867	350
3	2049	155.744010476867	351
3	2078	157.208667911265	352
3	2078	157.208667911265	353
3	2078	157.208667911265	354
3	2078	157.208667911265	355
3	2096	159.709450147939	356
3	2096	159.709450147939	357
3	2096	159.709450147939	358
3	2096	159.709450147939	359
3	2123	164.733777092755	360
3	2123	164.733777092755	361
3	2123	164.733777092755	362
3	2123	164.733777092755	363
3	2146	166.712546815092	364
3	2146	166.712546815092	365
3	2146	166.712546815092	366
3	2146	166.712546815092	367
3	2169	168.362968264804	368
3	2169	168.362968264804	369
3	2169	168.362968264804	370
3	2169	168.362968264804	371
3	2192	169.977220731563	372
3	2192	169.977220731563	373
3	2192	169.977220731563	374
3	2192	169.977220731563	375
3	2217	173.201568457784	376
3	2217	173.201568457784	377
3	2217	173.201568457784	378
3	2217	173.201568457784	379
3	2239	174.282509953054	380
3	2239	174.282509953054	381
3	2239	174.282509953054	382
3	2239	174.282509953054	383
3	2263	175.360944739199	384
3	2263	175.360944739199	385
3	2263	175.360944739199	386
3	2263	175.360944739199	387
3	2282	177.223689413985	388
3	2282	177.223689413985	389
3	2282	177.223689413985	390
3	2282	177.223689413985	391
3	2312	178.894956470122	392
3	2312	178.894956470122	393
3	2312	178.894956470122	394
3	2312	178.894956470122	395
3	2339	183.167258508228	396
3	2339	183.167258508228	397
3	2339	183.167258508228	398
3	2339	183.167258508228	399
3	2362	184.913727338011	400
3	2362	184.913727338011	401
3	2362	184.913727338011	402
3	2362	184.913727338011	403
3	2385	186.401732052759	404
3	2385	186.401732052759	405
3	2385	186.401732052759	406
3	2385	186.401732052759	407
3	2401	187.503931190175	408
3	2401	187.503931190175	409
3	2401	187.503931190175	410
3	2401	187.503931190175	411
3	2424	189.486052146091	412
3	2424	189.486052146091	413
3	2424	189.486052146091	414
3	2424	189.486052146091	415
3	2458	191.192998738198	416
3	2458	191.192998738198	417
3	2458	191.192998738198	418
3	2458	191.192998738198	419
3	2478	192.254121615337	420
3	2478	192.254121615337	421
3	2478	192.254121615337	422
3	2478	192.254121615337	423
3	2493	193.79152342001	424
3	2493	193.79152342001	425
3	2493	193.79152342001	426
3	2493	193.79152342001	427
3	2521	196.852006933325	428
3	2521	196.852006933325	429
3	2521	196.852006933325	430
3	2521	196.852006933325	431
3	2542	197.918630109218	432
3	2542	197.918630109218	433
3	2542	197.918630109218	434
3	2542	197.918630109218	435
3	2564	198.951574963366	436
3	2564	198.951574963366	437
3	2564	198.951574963366	438
3	2564	198.951574963366	439
3	2588	200.255380577662	440
3	2588	200.255380577662	441
3	2588	200.255380577662	442
3	2588	200.255380577662	443
3	2610	201.442771679367	444
3	2610	201.442771679367	445
3	2610	201.442771679367	446
3	2610	201.442771679367	447
3	2632	203.282493799748	448
3	2632	203.282493799748	449
3	2632	203.282493799748	450
3	2632	203.282493799748	451
3	2654	204.414788416722	452
3	2654	204.414788416722	453
3	2654	204.414788416722	454
3	2654	204.414788416722	455
3	2683	205.523963994431	456
3	2683	205.523963994431	457
3	2683	205.523963994431	458
3	2683	205.523963994431	459
3	2713	211.852741793453	460
3	2713	211.852741793453	461
3	2713	211.852741793453	462
3	2713	211.852741793453	463
3	2739	213.788107140348	464
3	2739	213.788107140348	465
3	2739	213.788107140348	466
3	2739	213.788107140348	467
3	2758	215.155452857133	468
3	2758	215.155452857133	469
3	2758	215.155452857133	470
3	2758	215.155452857133	471
3	2775	216.185456055868	472
3	2775	216.185456055868	473
3	2775	216.185456055868	474
3	2775	216.185456055868	475
3	2802	219.236845645435	476
3	2802	219.236845645435	477
3	2802	219.236845645435	478
3	2802	219.236845645435	479
3	2820	221.780778128452	480
3	2820	221.780778128452	481
3	2820	221.780778128452	482
3	2820	221.780778128452	483
3	2843	223.542344847738	484
3	2843	223.542344847738	485
3	2843	223.542344847738	486
3	2843	223.542344847738	487
3	2873	225.501169019177	488
3	2873	225.501169019177	489
3	2873	225.501169019177	490
3	2873	225.501169019177	491
3	2895	228.132588977282	492
3	2895	228.132588977282	493
3	2895	228.132588977282	494
3	2895	228.132588977282	495
3	2919	230.237570872081	496
3	2919	230.237570872081	497
3	2919	230.237570872081	498
3	2919	230.237570872081	499
3	2942	232.531882069457	500
3	2942	232.531882069457	501
3	2942	232.531882069457	502
3	2942	232.531882069457	503
3	2964	234.189579407694	504
3	2964	234.189579407694	505
3	2964	234.189579407694	506
3	2964	234.189579407694	507
3	3000	237.951421648042	508
3	3000	237.951421648042	509
3	3000	237.951421648042	510
3	3000	237.951421648042	511
4	15	1.342722102661	0
4	15	1.342722102661	1
4	15	1.342722102661	2
4	45	3.250637095335	3
4	45	3.250637095335	4
4	45	3.250637095335	5
4	66	4.764766119945	6
4	66	4.764766119945	7
4	66	4.764766119945	8
4	87	6.29624067721	9
4	87	6.29624067721	10
4	87	6.29624067721	11
4	110	8.05024175834	12
4	110	8.05024175834	13
4	110	8.05024175834	14
4	134	9.538900824031	15
4	134	9.538900824031	16
4	134	9.538900824031	17
4	154	11.492479413499	18
4	154	11.492479413499	19
4	154	11.492479413499	20
4	183	13.393780662351	21
4	183	13.393780662351	22
4	183	13.393780662351	23
4	206	15.040431400175	24
4	206	15.040431400175	25
4	206	15.040431400175	26
4	229	16.88601889665	27
4	229	16.88601889665	28
4	229	16.88601889665	29
4	251	20.288065030954	30
4	251	20.288065030954	31
4	251	20.288065030954	32
4	273	22.118835215188	33
4	273	22.118835215188	34
4	273	22.118835215188	35
4	299	24.495590252945	36
4	299	24.495590252945	37
4	299	24.495590252945	38
4	328	27.273205075693	39
4	328	27.273205075693	40
4	328	27.273205075693	41
4	352	28.643371797349	42
4	352	28.643371797349	43
4	352	28.643371797349	44
4	375	30.120756542606	45
4	375	30.120756542606	46
4	375	30.120756542606	47
4	395	31.572488432661	48
4	395	31.572488432661	49
4	395	31.572488432661	50
4	417	33.402100395533	51
4	417	33.402100395533	52
4	417	33.402100395533	53
4	444	34.92088917913	54
4	444	34.92088917913	55
4	444	34.92088917913	56
4	467	36.362858858367	57
4	467	36.362858858367	58
4	467	36.362858858367	59
4	490	37.363924388842	60
4	490	37.363924388842	61
4	490	37.363924388842	62
4	506	38.544540311545	63
4	506	38.544540311545	64
4	506	38.544540311545	65
4	536	39.786710638591	66
4	536	39.786710638591	67
4	536	39.786710638591	68
4	556	42.071606638595	69
4	556	42.071606638595	70
4	556	42.071606638595	71
4	578	43.635211975741	72
4	578	43.635211975741	73
4	578	43.635211975741	74
4	604	46.16304492594	75
4	604	46.16304492594	76
4	604	46.16304492594	77
4	630	48.788290685274	78
4	630	48.788290685274	79
4	630	48.788290685274	80
4	676	51.433852260054	81
4	676	51.433852260054	82
4	676	51.433852260054	83
4	699	52.968831246919	84
4	699	52.968831246919	85
4	699	52.968831246919	86
4	722	54.28126085777	87
4	722	54.28126085777	88
4	722	54.28126085777	89
4	739	55.917268286083	90
4	739	55.917268286083	91
4	739	55.917268286083	92
4	767	60.104431296934	93
4	767	60.104431296934	94
4	767	60.104431296934	95
4	790	61.305468161393	96
4	790	61.305468161393	97
4	790	61.305468161393	98
4	818	62.577616634516	99
4	818	62.577616634516	100
4	818	62.577616634516	101
4	835	64.048304466753	102
4	835	64.048304466753	103
4	835	64.048304466753	104
4	864	65.223536474705	105
4	864	65.223536474705	106
4	864	65.223536474705	107
4	887	70.38286234611	108
4	887	70.38286234611	109
4	887	70.38286234611	110
4	910	72.33536933492	111
4	910	72.33536933492	112
4	910	72.33536933492	113
4	934	73.686162095778	114
4	934	73.686162095778	115
4	934	73.686162095778	116
4	952	75.624082637044	117
4	952	75.624082637044	118
4	952	75.624082637044	119
4	983	76.730572002429	120
4	983	76.730572002429	121
4	983	76.730572002429	122
4	1001	78.35654043127	123
4	1001	78.35654043127	124
4	1001	78.35654043127	125
4	1029	80.012931254382	126
4	1029	80.012931254382	127
4	1029	80.012931254382	128
4	1049	83.710079335273	129
4	1049	83.710079335273	130
4	1049	83.710079335273	131
4	1071	85.642542424557	132
4	1071	85.642542424557	133
4	1071	85.642542424557	134
4	1102	88.149952293147	135
4	1102	88.149952293147	136
4	1102	88.149952293147	137
4	1121	89.277254352386	138
4	1121	89.277254352386	139
4	1121	89.277254352386	140
4	1144	90.362938683356	141
4	1144	90.362938683356	142
4	1144	90.362938683356	143
4	1167	91.512817392986	144
4	1167	91.512817392986	145
4	1167	91.512817392986	146
4	1188	93.270213351723	147
4	1188	93.270213351723	148
4	1188	93.270213351723	149
4	1217	94.544804514789	150
4	1217	94.544804514789	151
4	1217	94.544804514789	152
4	1240	95.73491011048	153
4	1240	95.73491011048	154
4	1240	95.73491011048	155
4	1260	97.53684602196	156
4	1260	97.53684602196	157
4	1260	97.53684602196	158
4	1285	99.81524121923	159
4	1285	99.81524121923	160
4	1285	99.81524121923	161
4	1311	100.994131733696	162
4	1311	100.994131733696	163
4	1311	100.994131733696	164
4	1331	102.103623763138	165
4	1331	102.103623763138	166
4	1331	102.103623763138	167
4	1357	103.128787199884	168
4	1357	103.128787199884	169
4	1357	103.128787199884	170
4	1382	105.777973709741	171
4	1382	105.777973709741	172
4	1382	105.777973709741	173
4	1399	107.184586016352	174
4	1399	107.184586016352	175
4	1399	107.184586016352	176
4	1426	108.369365040103	177
4	1426	108.369365040103	178
4	1426	108.369365040103	179
4	1461	111.902636113862	180
4	1461	111.902636113862	181
4	1461	111.902636113862	182
4	1479	113.493208779	183
4	1479	113.493208779	184
4	1479	113.493208779	185
4	1507	115.076308761734	186
4	1507	115.076308761734	187
4	1507	115.076308761734	188
4	1526	116.314981141045	189
4	1526	116.314981141045	190
4	1526	116.314981141045	191
4	1553	117.557996521191	192
4	1553	117.557996521191	193
4	1553	117.557996521191	194
4	1572	119.542194332365	195
4	1572	119.542194332365	196
4	1572	119.542194332365	197
4	1593	121.202402046419	198
4	1593	121.202402046419	199
4	1593	121.202402046419	200
4	1616	122.54357470589	201
4	1616	122.54357470589	202
4	1616	122.54357470589	203
4	1637	124.002549235879	204
4	1637	124.002549235879	205
4	1637	124.002549235879	206
4	1668	125.780570692846	207
4	1668	125.780570692846	208
4	1668	125.780570692846	209
4	1685	127.000211160879	210
4	1685	127.000211160879	211
4	1685	127.000211160879	212
4	1714	128.589271050723	213
4	1714	128.589271050723	214
4	1714	128.589271050723	215
4	1755	134.526532256297	216
4	1755	134.526532256297	217
4	1755	134.526532256297	218
4	1776	135.590584299426	219
4	1776	135.590584299426	220
4	1776	135.590584299426	221
4	1806	136.712067490337	222
4	1806	136.712067490337	223
4	1806	136.712067490337	224
4	1829	137.749492114908	225
4	1829	137.749492114908	226
4	1829	137.749492114908	227
4	1856	142.562892922594	228
4	1856	142.562892922594	229
4	1856	142.562892922594	230
4	1876	144.298565836504	231
4	1876	144.298565836504	232
4	1876	144.298565836504	233
4	1902	145.555508629961	234
4	1902	145.555508629961	235
4	1902	145.555508629961	236
4	1919	147.212896735838	237
4	1919	147.212896735838	238
4	1919	147.212896735838	239
4	1940	149.042263404404	240
4	1940	149.042263404404	241
4	1940	149.042263404404	242
4	1968	150.583671450955	243
4	1968	150.583671450955	244
4	1968	150.583671450955	245
4	1991	152.130117868571	246
4	1991	152.130117868571	247
4	1991	152.130117868571	248
4	2011	153.29176075423	249
4	2011	153.29176075423	250
4	2011	153.29176075423	251
4	2032	154.383856529318	252
4	2032	154.383856529318	253
4	2032	154.383856529318	254
4	2060	155.763032309116	255
4	2060	155.763032309116	256
4	2060	155.763032309116	257
4	2083	157.22073013076	258
4	2083	157.22073013076	259
4	2083	157.22073013076	260
4	2105	159.726736948687	261
4	2105	159.726736948687	262
4	2105	159.726736948687	263
4	2129	164.744042063669	264
4	2129	164.744042063669	265
4	2129	164.744042063669	266
4	2152	166.724402417106	267
4	2152	166.724402417106	268
4	2152	166.724402417106	269
4	2179	168.38585742549	270
4	2179	168.38585742549	271
4	2179	168.38585742549	272
4	2204	170.010993849444	273
4	2204	170.010993849444	274
4	2204	170.010993849444	275
4	2248	174.318701455192	276
4	2248	174.318701455192	277
4	2248	174.318701455192	278
4	2271	175.375531752612	279
4	2271	175.375531752612	280
4	2271	175.375531752612	281
4	2294	177.240156451429	282
4	2294	177.240156451429	283
4	2294	177.240156451429	284
4	2317	178.917625239456	285
4	2317	178.917625239456	286
4	2317	178.917625239456	287
4	2340	183.170139245799	288
4	2340	183.170139245799	289
4	2340	183.170139245799	290
4	2363	184.914022507351	291
4	2363	184.914022507351	292
4	2363	184.914022507351	293
4	2386	186.411213813275	294
4	2386	186.411213813275	295
4	2386	186.411213813275	296
4	2413	187.546032006601	297
4	2413	187.546032006601	298
4	2413	187.546032006601	299
4	2432	189.518824320605	300
4	2432	189.518824320605	301
4	2432	189.518824320605	302
4	2452	191.181170833892	303
4	2452	191.181170833892	304
4	2452	191.181170833892	305
4	2475	192.248217697264	306
4	2475	192.248217697264	307
4	2475	192.248217697264	308
4	2499	193.810395731972	309
4	2499	193.810395731972	310
4	2499	193.810395731972	311
4	2530	196.903494796312	312
4	2530	196.903494796312	313
4	2530	196.903494796312	314
4	2553	197.980753945499	315
4	2553	197.980753945499	316
4	2553	197.980753945499	317
4	2571	198.968937246597	318
4	2571	198.968937246597	319
4	2571	198.968937246597	320
4	2596	200.295566379691	321
4	2596	200.295566379691	322
4	2596	200.295566379691	323
4	2615	201.456567138979	324
4	2615	201.456567138979	325
4	2615	201.456567138979	326
4	2642	203.293271870439	327
4	2642	203.293271870439	328
4	2642	203.293271870439	329
4	2662	204.430810463019	330
4	2662	204.430810463019	331
4	2662	204.430810463019	332
4	2688	205.537165272127	333
4	2688	205.537165272127	334
4	2688	205.537165272127	335
4	2712	211.843050542947	336
4	2712	211.843050542947	337
4	2712	211.843050542947	338
4	2733	213.77059866986	339
4	2733	213.77059866986	340
4	2733	213.77059866986	341
4	2759	215.156142011315	342
4	2759	215.156142011315	343
4	2759	215.156142011315	344
4	2782	216.205914709014	345
4	2782	216.205914709014	346
4	2782	216.205914709014	347
4	2807	219.268880458295	348
4	2807	219.268880458295	349
4	2807	219.268880458295	350
4	2832	221.808571468338	351
4	2832	221.808571468338	352
4	2832	221.808571468338	353
4	2848	223.552697964989	354
4	2848	223.552697964989	355
4	2848	223.552697964989	356
4	2878	225.539846691937	357
4	2878	225.539846691937	358
4	2878	225.539846691937	359
4	2903	228.155940765962	360
4	2903	228.155940765962	361
4	2903	228.155940765962	362
4	2928	230.278276445037	363
4	2928	230.278276445037	364
4	2928	230.278276445037	365
4	2947	232.541554054951	366
4	2947	232.541554054951	367
4	2947	232.541554054951	368
4	2976	234.208878324152	369
4	2976	234.208878324152	370
4	2976	234.208878324152	371
4	2996	237.931357730172	372
4	2996	237.931357730172	373
4	2996	237.931357730172	374
5	20	1.345991911527	0
5	20	1.345991911527	1
5	34	3.236731578982	2
5	34	3.236731578982	3
5	58	4.755686948539	4
5	58	4.755686948539	5
5	79	6.265129404407	6
5	79	6.265129404407	7
5	103	8.038734219567	8
5	103	8.038734219567	9
5	138	9.551529224375	10
5	138	9.551529224375	11
5	149	11.490802677826	12
5	149	11.490802677826	13
5	171	13.364070138401	14
5	171	13.364070138401	15
5	194	15.020538464912	16
5	194	15.020538464912	17
5	217	16.830097700115	18
5	217	16.830097700115	19
5	242	20.2697445961	20
5	242	20.2697445961	21
5	265	22.101266735504	22
5	265	22.101266735504	23
5	290	24.473920335812	24
5	290	24.473920335812	25
5	321	27.258463104529	26
5	321	27.258463104529	27
5	372	30.091834538196	28
5	372	30.091834538196	29
5	396	31.578556762514	30
5	396	31.578556762514	31
5	410	33.379715509708	32
5	410	33.379715509708	33
5	436	34.895491460469	34
5	436	34.895491460469	35
5	459	36.324541927957	36
5	459	36.324541927957	37
5	479	37.339113426429	38
5	479	37.339113426429	39
5	507	38.549390178756	40
5	507	38.549390178756	41
5	525	39.76437536028	42
5	525	39.76437536028	43
5	550	42.058732458048	44
5	550	42.058732458048	45
5	577	43.634892022277	46
5	577	43.634892022277	47
5	602	46.158674372825	48
5	602	46.158674372825	49
5	622	48.770184257025	50
5	622	48.770184257025	51
5	646	49.881883327149	52
5	646	49.881883327149	53
5	666	51.423447352939	54
5	666	51.423447352939	55
5	687	52.932419222394	56
5	687	52.932419222394	57
5	714	54.253572307899	58
5	714	54.253572307899	59
5	738	55.912442826353	60
5	738	55.912442826353	61
5	760	60.091955381161	62
5	760	60.091955381161	63
5	785	61.301841733241	64
5	785	61.301841733241	65
5	806	62.547614946347	66
5	806	62.547614946347	67
5	831	64.039861752378	68
5	831	64.039861752378	69
5	858	65.19992796428	70
5	858	65.19992796428	71
5	879	70.35981412465	72
5	879	70.35981412465	73
5	902	72.311956890653	74
5	902	72.311956890653	75
5	925	73.670962755781	76
5	925	73.670962755781	77
5	954	75.630797342758	78
5	954	75.630797342758	79
5	973	76.70970899883	80
5	973	76.70970899883	81
5	995	78.347467573439	82
5	995	78.347467573439	83
5	1023	79.999866415494	84
5	1023	79.999866415494	85
5	1042	83.697835914066	86
5	1042	83.697835914066	87
5	1067	85.635024529777	88
5	1067	85.635024529777	89
5	1090	88.13191292572	90
5	1090	88.13191292572	91
5	1114	89.266185658341	92
5	1114	89.266185658341	93
5	1137	90.352243366551	94
5	1137	90.352243366551	95
5	1159	91.496471716191	96
5	1159	91.496471716191	97
5	1187	93.269409879384	98
5	1187	93.269409879384	99
5	1205	94.507894229826	100
5	1205	94.507894229826	101
5	1229	95.715546946568	102
5	1229	95.715546946568	103
5	1264	97.551489237885	104
5	1264	97.551489237885	105
5	1276	99.780546572785	106
5	1276	99.780546572785	107
5	1300	100.970220166893	108
5	1300	100.970220166893	109
5	1322	102.067603886528	110
5	1322	102.067603886528	111
5	1346	103.100512824888	112
5	1346	103.100512824888	113
5	1370	105.75752925736	114
5	1370	105.75752925736	115
5	1394	107.180455924202	116
5	1394	107.180455924202	117
5	1425	108.364660671465	118
5	1425	108.364660671465	119
5	1439	109.964056209649	120
5	1439	109.964056209649	121
5	1450	111.869540967936	122
5	1450	111.869540967936	123
5	1473	113.478305921758	124
5	1473	113.478305921758	125
5	1495	115.043866858899	126
5	1495	115.043866858899	127
5	1518	116.299895102537	128
5	1518	116.299895102537	129
5	1542	117.5431239382	130
5	1542	117.5431239382	131
5	1564	119.528383211082	132
5	1564	119.528383211082	133
5	1594	121.205368268761	134
5	1594	121.205368268761	135
5	1615	122.53989507325	136
5	1615	122.53989507325	137
5	1646	124.018391888584	138
5	1646	124.018391888584	139
5	1656	125.735221751938	140
5	1656	125.735221751938	141
5	1684	126.999870368375	142
5	1684	126.999870368375	143
5	1707	128.574715851984	144
5	1707	128.574715851984	145
5	1729	132.945505648168	146
5	1729	132.945505648168	147
5	1750	134.518939787576	148
5	1750	134.518939787576	149
5	1772	135.581246632524	150
5	1772	135.581246632524	151
5	1794	136.674320610251	152
5	1794	136.674320610251	153
5	1817	137.725173209976	154
5	1817	137.725173209976	155
5	1845	142.514234538987	156
5	1845	142.514234538987	157
5	1880	144.311635255672	158
5	1880	144.311635255672	159
5	1890	145.539914811702	160
5	1890	145.539914811702	161
5	1917	147.206095320413	162
5	1917	147.206095320413	163
5	1949	149.07509232831	164
5	1949	149.07509232831	165
5	1979	152.077422500686	166
5	1979	152.077422500686	167
5	2002	153.273815818517	168
5	2002	153.273815818517	169
5	2031	154.380578914204	170
5	2031	154.380578914204	171
5	2048	155.740452978634	172
5	2048	155.740452978634	173
5	2071	157.169463678128	174
5	2071	157.169463678128	175
5	2097	159.712534346476	176
5	2097	159.712534346476	177
5	2136	164.759225750474	178
5	2136	164.759225750474	179
5	2147	166.716355674005	180
5	2147	166.716355674005	181
5	2178	168.383010422156	182
5	2178	168.383010422156	183
5	2201	169.989301645749	184
5	2201	169.989301645749	185
5	2226	173.225627461034	186
5	2226	173.225627461034	187
5	2236	174.253564548038	188
5	2236	174.253564548038	189
5	2259	175.344498121858	190
5	2259	175.344498121858	191
5	2284	177.22972417945	192
5	2284	177.22972417945	193
5	2305	178.861338909559	194
5	2305	178.861338909559	195
5	2333	183.151470455619	196
5	2333	183.151470455619	197
5	2355	184.883500157292	198
5	2355	184.883500157292	199
5	2378	186.366078100227	200
5	2378	186.366078100227	201
5	2402	187.505041851286	202
5	2402	187.505041851286	203
5	2425	189.486500692667	204
5	2425	189.486500692667	205
5	2448	191.178369432037	206
5	2448	191.178369432037	207
5	2471	192.238941151542	208
5	2471	192.238941151542	209
5	2494	193.801022642075	210
5	2494	193.801022642075	211
5	2518	196.833557558941	212
5	2518	196.833557558941	213
5	2541	197.915935541021	214
5	2541	197.915935541021	215
5	2570	198.967055708953	216
5	2570	198.967055708953	217
5	2607	201.423836793026	218
5	2607	201.423836793026	219
5	2631	203.276553589178	220
5	2631	203.276553589178	221
5	2663	204.431706903806	222
5	2663	204.431706903806	223
5	2676	205.495525299133	224
5	2676	205.495525299133	225
5	2706	211.831625387872	226
5	2706	211.831625387872	227
5	2729	213.761786356732	228
5	2729	213.761786356732	229
5	2751	215.142199697977	230
5	2751	215.142199697977	231
5	2774	216.185043426597	232
5	2774	216.185043426597	233
5	2795	219.207955691866	234
5	2795	219.207955691866	235
5	2822	221.788987916075	236
5	2822	221.788987916075	237
5	2849	223.553154569043	238
5	2849	223.553154569043	239
5	2867	225.490327901638	240
5	2867	225.490327901638	241
5	2896	228.139858853285	242
5	2896	228.139858853285	243
5	2916	230.226961732516	244
5	2916	230.226961732516	245
5	2943	232.53424843654	246
5	2943	232.53424843654	247
5	2965	234.191343387057	248
5	2965	234.191343387057	249
5	2990	237.916873363037	250
5	2990	237.916873363037	251
6	23	1.352722102661	0
6	71	4.774766119945	1
6	91	6.30624067721	2
6	117	8.06024175834	3
6	137	9.548900824031	4
6	160	11.502479413499	5
6	186	13.403780662351	6
6	232	16.89601889665	7
6	280	22.128835215188	8
6	305	24.505590252945	9
6	332	27.283205075693	10
6	399	31.582488432661	11
6	447	34.93088917913	12
6	470	36.372858858367	13
6	493	37.373924388842	14
6	511	38.554540311545	15
6	539	39.796710638591	16
6	560	42.081606638595	17
6	583	43.645211975741	18
6	612	46.17304492594	19
6	634	48.798290685274	20
6	679	51.443852260054	21
6	702	52.978831246919	22
6	725	54.29126085777	23
6	745	55.927268286083	24
6	771	60.114431296934	25
6	798	61.315468161393	26
6	821	62.587616634516	27
6	844	64.058304466753	28
6	867	65.233536474705	29
6	913	72.34536933492	30
6	940	73.696162095778	31
6	986	76.740572002429	32
6	1009	78.36654043127	33
6	1032	80.022931254382	34
6	1053	83.720079335273	35
6	1080	85.652542424557	36
6	1105	88.159952293147	37
6	1148	90.372938683356	38
6	1170	91.522817392986	39
6	1193	93.280213351723	40
6	1220	94.554804514789	41
6	1243	95.74491011048	42
6	1263	97.54684602196	43
6	1291	99.82524121923	44
6	1314	101.004131733696	45
6	1337	102.113623763138	46
6	1360	103.138787199884	47
6	1404	107.194586016352	48
6	1464	111.912636113862	49
6	1483	113.503208779	50
6	1530	116.324981141045	51
6	1556	117.567996521191	52
6	1579	119.552194332365	53
6	1600	121.212402046419	54
6	1625	122.55357470589	55
6	1641	124.012549235879	56
6	1671	125.790570692846	57
6	1690	127.010211160879	58
6	1763	134.536532256297	59
6	1781	135.600584299426	60
6	1809	136.722067490337	61
6	1832	137.759492114908	62
6	1859	142.572892922594	63
6	1879	144.308565836504	64
6	1905	145.565508629961	65
6	1928	147.222896735838	66
6	1943	149.052263404404	67
6	1971	150.593671450955	68
6	1994	152.140117868571	69
6	2017	153.30176075423	70
6	2040	154.393856529318	71
6	2063	155.773032309116	72
6	2086	157.23073013076	73
6	2111	159.736736948687	74
6	2135	164.754042063669	75
6	2157	166.734402417106	76
6	2184	168.39585742549	77
6	2207	170.020993849444	78
6	2251	174.328701455192	79
6	2274	175.385531752612	80
6	2297	177.250156451429	81
6	2347	183.180139245799	82
6	2393	186.421213813275	83
6	2416	187.556032006601	84
6	2481	192.258217697264	85
6	2533	196.913494796312	86
6	2556	197.990753945499	87
6	2579	198.978937246597	88
6	2599	200.305566379691	89
6	2618	201.466567138979	90
6	2645	203.303271870439	91
6	2691	205.547165272127	92
6	2716	211.853050542947	93
6	2738	213.78059866986	94
6	2785	216.215914709014	95
6	2810	219.278880458295	96
6	2835	221.818571468338	97
6	2853	223.562697964989	98
6	2881	225.549846691937	99
6	2931	230.288276445037	100
6	2956	232.551554054951	101
6	2979	234.218878324152	102
6	2999	237.941357730172	103

