version 2
run General-4-20230921-23:15:45-8726
attr configname General
attr datetime 20230921-23:15:45
attr experiment General
attr inifile omnetpp.ini
attr iterationvars ""
attr iterationvarsf ""
attr measurement ""
attr network Network2
attr processid 8726
attr repetition 4
attr replication #4
attr resultdir results
attr runnumber 4
attr seedset 4
param Network2.node[*].transmissionTime "uniform(1s, 2s)"
param Network2.node[*].delayTime "uniform(0.01s, 0.2s)"
param Network2.node[*].processingTime exponential(0.01s)
param Network2.node[*].lossProbability 0.0

vector 0 Network2.node[0] txVector ETV
vector 1 Network2.node[1] txVector ETV
vector 2 Network2.node[3] txVector ETV
vector 3 Network2.node[2] txVector ETV
vector 4 Network2.node[4] txVector ETV
vector 5 Network2.node[5] rxVector ETV
vector 6 Network2.node[6] txVector ETV
0	1	0.193735669288	0
0	13	2.094357123985	1
0	25	3.529148653536	2
0	33	4.795622436716	3
0	49	6.661911733835	4
0	63	7.873092289469	5
0	75	9.231858662716	6
0	95	11.178932689517	7
0	103	12.69366666364	8
0	129	14.060436332519	9
0	143	15.679366255798	10
0	163	17.505389125938	11
0	183	19.478667123396	12
0	191	20.888302612504	13
0	201	22.069267450286	14
0	211	23.188844138211	15
0	221	25.029310203776	16
0	229	26.75703887517	17
0	241	28.712843471127	18
0	249	30.336996713806	19
0	265	32.084245156882	20
0	275	33.547094914982	21
0	285	34.572496616434	22
0	293	36.10001102175	23
0	301	37.836511291483	24
0	311	38.948385607836	25
0	321	40.010952513584	26
0	337	41.143794520211	27
0	347	42.545493608725	28
0	359	44.410588064848	29
0	367	46.195198800566	30
0	375	47.604634388501	31
0	387	48.811597412603	32
0	395	50.131022603635	33
0	405	51.493004720344	34
0	425	52.893276419177	35
0	437	54.050369886601	36
0	453	55.794339375956	37
0	465	57.079650312116	38
0	477	58.530458046276	39
0	487	60.314031932423	40
0	515	61.620977146238	41
0	525	63.156081415865	42
0	535	65.097178930336	43
0	543	66.21881657109	44
0	575	68.134078335402	45
0	593	69.529463273625	46
0	603	70.705476755894	47
0	611	71.792806671386	48
0	621	73.122568804923	49
0	633	74.413314129378	50
0	643	75.635564855219	51
0	671	76.654583733914	52
0	695	78.547582764098	53
0	703	79.554971860874	54
0	731	81.282053658425	55
0	753	83.260375094053	56
0	763	85.236044889235	57
0	777	87.098516010831	58
0	793	88.632606119768	59
0	801	90.319569646533	60
0	809	91.542686014356	61
0	819	93.119550810814	62
0	829	94.176743530588	63
0	837	95.48100977546	64
0	853	96.635167390028	65
0	863	97.845398626909	66
0	873	99.603021365278	67
0	891	100.900040482324	68
0	899	102.233308955947	69
0	907	103.938720327955	70
0	919	105.491414858647	71
0	929	106.674098920463	72
0	939	108.321944707459	73
0	951	109.943824127469	74
0	963	111.220481172589	75
0	971	112.985734194436	76
0	989	114.468981949299	77
0	997	115.907742194285	78
0	1015	117.300457834651	79
0	1025	118.715277765098	80
0	1053	119.806193743286	81
0	1071	121.107656944695	82
0	1087	122.518613441068	83
0	1097	123.655942789431	84
0	1109	124.929298314418	85
0	1117	126.614298908192	86
0	1129	127.852178076434	87
0	1141	129.117870629218	88
0	1151	130.599460152362	89
0	1161	132.579166682588	90
0	1171	134.048133522656	91
0	1183	135.636075439083	92
0	1205	137.406393510674	93
0	1217	139.037478038727	94
0	1227	140.788384167396	95
0	1235	142.142674097477	96
0	1259	143.623755248415	97
0	1269	144.798641632695	98
0	1281	146.35362579223	99
0	1289	148.035794320435	100
0	1301	149.092742758489	101
0	1317	150.692703816958	102
0	1325	151.977610989392	103
0	1335	153.497610806406	104
0	1343	155.461263394135	105
0	1351	157.343340519967	106
0	1369	158.519278904342	107
0	1391	159.659616076772	108
0	1401	161.384278241929	109
0	1413	162.713462318678	110
0	1423	164.668563038728	111
0	1433	166.140200868633	112
0	1441	167.502504862996	113
0	1455	169.199580022751	114
0	1467	170.558535341558	115
0	1477	171.622965250782	116
0	1485	173.567131787225	117
0	1497	175.231957692805	118
0	1515	176.247254211608	119
0	1525	177.631426944783	120
0	1533	179.525793613087	121
0	1547	181.518246155385	122
0	1555	183.208686294885	123
0	1563	185.064407076606	124
0	1579	186.58018686754	125
0	1593	187.737298321131	126
0	1601	189.714909759037	127
0	1613	190.754844647053	128
0	1621	192.319837532391	129
0	1629	193.876369957266	130
0	1639	194.903008275585	131
0	1661	196.217493802694	132
0	1677	197.311774259585	133
0	1695	198.398301927292	134
0	1713	200.147408505122	135
0	1727	201.842500879814	136
0	1739	202.857076661115	137
0	1747	204.027991937858	138
0	1755	205.276150987635	139
0	1765	207.247783138801	140
0	1773	208.72620230905	141
0	1783	210.440542882692	142
0	1791	212.363319899805	143
0	1803	213.751318231143	144
0	1815	215.458920926938	145
0	1825	217.101496056339	146
0	1835	218.133733027067	147
0	1845	219.972576626262	148
0	1865	221.216070306406	149
0	1877	222.741299878724	150
0	1889	223.893861812225	151
0	1909	225.243987929227	152
0	1925	226.611734181095	153
0	1937	228.113235937815	154
0	1949	229.28346463401	155
0	1961	230.333936151733	156
0	1969	232.150570334086	157
0	1981	233.674687624361	158
0	1991	234.865296652458	159
0	2001	236.822176476858	160
0	2023	238.228733944158	161
0	2037	239.276349458761	162
1	3	0.205631491707	0
1	15	2.119470391754	1
1	27	3.549474490971	2
1	35	4.807523943004	3
1	51	6.67390503482	4
1	65	7.883960611706	5
1	77	9.245651863901	6
1	97	11.198185083793	7
1	105	12.703885221672	8
1	131	14.076176938728	9
1	145	15.69363495144	10
1	165	17.515798295111	11
1	185	19.505318591526	12
1	193	20.903572016714	13
1	203	22.081841967048	14
1	213	23.202823902523	15
1	223	25.051015109988	16
1	231	26.768686272667	17
1	243	28.732306135418	18
1	251	30.347873015481	19
1	267	32.099775396981	20
1	277	33.558560851914	21
1	287	34.58478208986	22
1	295	36.140792594325	23
1	303	37.854502486426	24
1	313	38.96056747134	25
1	323	40.02181580362	26
1	339	41.169794052719	27
1	349	42.56859492034	28
1	361	44.420626866405	29
1	369	46.226136761878	30
1	377	47.633026315171	31
1	389	48.83469048626	32
1	397	50.146744911795	33
1	407	51.511473164733	34
1	427	52.904582632028	35
1	439	54.067533971034	36
1	455	55.816281298491	37
1	467	57.090418932973	38
1	479	58.548015377028	39
1	489	60.339662455041	40
1	517	61.663497285017	41
1	527	63.1702434306	42
1	537	65.108320523937	43
1	545	66.229459531995	44
1	577	68.146919254487	45
1	595	69.551012841442	46
1	605	70.730247620212	47
1	613	71.80955330035	48
1	623	73.149180447712	49
1	635	74.434888598773	50
1	645	75.655257116597	51
1	673	76.670654949989	52
1	697	78.563426762004	53
1	705	79.571732119169	54
1	733	81.297759551838	55
1	755	83.284996581134	56
1	765	85.254563334025	57
1	779	87.113225089916	58
1	795	88.653940719951	59
1	803	90.345557021939	60
1	811	91.5528625122	61
1	821	93.129696539789	62
1	831	94.233335775108	63
1	839	95.513561411626	64
1	855	96.651295929564	65
1	865	97.856019370972	66
1	875	99.613666551625	67
1	893	100.924788489342	68
1	901	102.252462929189	69
1	909	103.959107582655	70
1	921	105.51671100773	71
1	931	106.721890412411	72
1	941	108.341395109893	73
1	953	109.965609761389	74
1	965	111.23818826355	75
1	973	112.99846915867	76
1	991	114.479372830486	77
1	999	115.922408569413	78
1	1017	117.326247404792	79
1	1027	118.730658487228	80
1	1055	119.818983175187	81
1	1073	121.132586834278	82
1	1089	122.543168726803	83
1	1099	123.670891651388	84
1	1111	124.957967887525	85
1	1119	126.629078879738	86
1	1131	127.866170846931	87
1	1143	129.130322728082	88
1	1153	130.618856059063	89
1	1163	132.589184261153	90
1	1173	134.063603054304	91
1	1185	135.649117150581	92
1	1207	137.416845630678	93
1	1219	139.047584145989	94
1	1229	140.815102299537	95
1	1237	142.15806894664	96
1	1261	143.636664683685	97
1	1271	144.80943686381	98
1	1283	146.377229069524	99
1	1291	148.048456675405	100
1	1303	149.10391601858	101
1	1319	150.712138362027	102
1	1327	152.007951722073	103
1	1337	153.510622471374	104
1	1345	155.47749443928	105
1	1353	157.355085930107	106
1	1371	158.532227542913	107
1	1393	159.677587094092	108
1	1403	161.3949885545	109
1	1415	162.726466523469	110
1	1425	164.678710410063	111
1	1435	166.170009285841	112
1	1443	167.513149337105	113
1	1457	169.216013672096	114
1	1469	170.594735323805	115
1	1479	171.638647654562	116
1	1487	173.577443112249	117
1	1499	175.255812794682	118
1	1517	176.260211498694	119
1	1527	177.642853755535	120
1	1535	179.542740485174	121
1	1549	181.535620653184	122
1	1557	183.219528426693	123
1	1565	185.077604453527	124
1	1581	186.60850290066	125
1	1595	187.760011212096	126
1	1603	189.734160133022	127
1	1615	190.76865119196	128
1	1623	192.333034946265	129
1	1631	193.890579560409	130
1	1641	194.918549479039	131
1	1663	196.228317153564	132
1	1679	197.323017443565	133
1	1697	198.410202015779	134
1	1715	200.162326235251	135
1	1729	201.867357461599	136
1	1741	202.868887459125	137
1	1749	204.058429526838	138
1	1757	205.288838053153	139
1	1767	207.262049379561	140
1	1775	208.739095058701	141
1	1785	210.478549416645	142
1	1793	212.378236942455	143
1	1805	213.764724879628	144
1	1817	215.484366946883	145
1	1827	217.11426536547	146
1	1837	218.144332435357	147
1	1847	219.990289326615	148
1	1867	221.228000027524	149
1	1879	222.764197686089	150
1	1891	223.918280209647	151
1	1911	225.259581268077	152
1	1927	226.626183266399	153
1	1939	228.124362958101	154
1	1951	229.29845570972	155
1	1963	230.351070570373	156
1	1971	232.167582922728	157
1	1983	233.690802962031	158
1	1993	234.875696431389	159
1	2003	236.83965153382	160
1	2025	238.265336581694	161
1	2039	239.290164133276	162
2	5	0.228177698444	0
2	9	0.294691726298	1
2	19	2.188948976798	2
2	29	3.565204101736	3
2	37	4.818203622032	4
2	41	4.845292502923	5
2	45	4.888742509831	6
2	89	9.358845885411	7
2	119	12.833380143251	8
2	147	15.709840042478	9
2	159	15.860217617344	10
2	177	17.625018090573	11
2	187	19.541329661335	12
2	197	20.974256092394	13
2	207	22.121491608287	14
2	215	23.218312049881	15
2	225	25.080407299632	16
2	257	30.409636375204	17
2	261	30.435290245092	18
2	289	34.601934098161	19
2	297	36.164152823482	20
2	307	37.901183046419	21
2	317	38.986177893039	22
2	327	40.073216441034	23
2	331	40.10902291392	24
2	341	41.180178812512	25
2	363	44.433438194039	26
2	371	46.249632148423	27
2	379	47.653554625964	28
2	383	47.677330703456	29
2	391	48.852923786732	30
2	401	50.199501800491	31
2	411	51.548607342242	32
2	415	51.592831555784	33
2	457	55.829206402603	34
2	461	55.895361066692	35
2	483	58.57829130612	36
2	507	60.537130547577	37
2	511	60.581950491973	38
2	521	61.718034852889	39
2	539	65.126848564241	40
2	549	66.273579808429	41
2	565	66.440825019097	42
2	599	69.601760002791	43
2	607	70.770085952845	44
2	629	73.196193053084	45
2	637	74.44828709746	46
2	655	75.757116060213	47
2	659	75.810105012016	48
2	667	75.948625473844	49
2	675	76.690839969721	50
2	691	76.883843159193	51
2	699	78.586490392391	52
2	707	79.606369324179	53
2	715	79.685984681977	54
2	727	79.799904872554	55
2	739	81.349412349631	56
2	743	81.391183828942	57
2	747	81.461912179288	58
2	781	87.124517758161	59
2	785	87.218562605667	60
2	789	87.280990920585	61
2	797	88.666397113071	62
2	823	93.152413873016	63
2	833	94.257674246511	64
2	841	95.523708416541	65
2	845	95.556725277104	66
2	849	95.57831155269	67
2	869	97.889804138141	68
2	887	99.734976154566	69
2	903	102.272171440901	70
2	915	104.031669109847	71
2	925	105.547875611366	72
2	933	106.747585643709	73
2	943	108.354623523934	74
2	947	108.397337935389	75
2	955	109.99189039714	76
2	959	110.032767519661	77
2	967	111.262699368934	78
2	985	113.080543206952	79
2	993	114.495139040947	80
2	1041	118.871820866206	81
2	1049	118.94287274299	82
2	1057	119.8328625017	83
2	1105	123.750243455904	84
2	1113	124.980166688947	85
2	1137	127.917249856508	86
2	1157	130.647233367107	87
2	1167	132.626251004235	88
2	1179	134.118803420893	89
2	1209	137.437811865708	90
2	1213	137.493606902817	91
2	1223	139.095667543578	92
2	1231	140.82718966074	93
2	1241	142.189911589363	94
2	1245	142.236302680428	95
2	1265	143.68449066004	96
2	1285	146.387905603861	97
2	1309	149.156236516424	98
2	1313	149.216522103801	99
2	1331	152.043549887912	100
2	1359	157.416350093279	101
2	1363	157.445336467618	102
2	1381	158.635597297086	103
2	1427	164.691922429145	104
2	1445	167.525878958309	105
2	1449	167.564396303938	106
2	1463	169.299591853685	107
2	1473	170.623426305026	108
2	1529	177.658911591271	109
2	1537	179.576057165474	110
2	1551	181.558578901138	111
2	1559	183.244875122475	112
2	1587	186.719895788711	113
2	1597	187.770391919723	114
2	1609	189.791511416126	115
2	1617	190.787513547861	116
2	1625	192.375662246928	117
2	1643	194.942561467285	118
2	1655	195.066740209481	119
2	1669	196.332235758517	120
2	1673	196.364185388057	121
2	1681	197.387162844562	122
2	1689	197.498973763035	123
2	1703	198.482269198517	124
2	1717	200.184860749638	125
2	1721	200.213790464442	126
2	1733	201.920008312651	127
2	1751	204.077671112675	128
2	1769	207.277538619037	129
2	1787	210.4893298369	130
2	1811	213.847646750227	131
2	1819	215.496928510283	132
2	1851	220.048307888087	133
2	1855	220.102145860383	134
2	1873	221.28170390296	135
2	1931	226.693822562748	136
2	1943	228.150413496901	137
2	1965	230.37268192328	138
2	1973	232.180279517257	139
2	1977	232.228275870304	140
2	2005	236.850038428562	141
2	2017	236.956120163255	142
3	7	0.247279696778	0
3	17	2.137965045307	1
3	21	2.203920936037	2
3	39	4.83004251609	3
3	43	4.875718314066	4
3	55	6.703744179182	5
3	59	6.728239750912	6
3	67	7.894446271297	7
3	71	7.925943981508	8
3	79	9.261043708628	9
3	83	9.289472390133	10
3	87	9.347961270817	11
3	91	9.369302637816	12
3	99	11.237000315177	13
3	109	12.734781583438	14
3	113	12.762851157599	15
3	117	12.820686282997	16
3	121	12.847914411845	17
3	125	12.871962550917	18
3	135	14.102245544349	19
3	139	14.123143339303	20
3	149	15.721164101268	21
3	153	15.760409440299	22
3	157	15.835820933971	23
3	167	17.53363536861	24
3	171	17.584763832429	25
3	175	17.614954650364	26
3	179	17.661814798044	27
3	195	20.96045407548	28
3	205	22.107337568623	29
3	217	23.253567755258	30
3	233	26.781654239814	31
3	237	26.802944552107	32
3	245	28.745906761471	33
3	255	30.377909025373	34
3	259	30.424841081984	35
3	271	32.140993591812	36
3	281	33.585249420377	37
3	305	37.873111805137	38
3	315	38.971005929968	39
3	325	40.06211254026	40
3	329	40.090245585338	41
3	333	40.126680526352	42
3	343	41.191616039548	43
3	351	42.587363694527	44
3	355	42.620527247939	45
3	381	47.666015750128	46
3	399	50.159925561963	47
3	409	51.537378559944	48
3	413	51.582556811878	49
3	417	51.626995399776	50
3	421	51.652619607302	51
3	429	52.928259289911	52
3	433	52.972185389893	53
3	441	54.079301393336	54
3	445	54.152285641797	55
3	449	54.181365218632	56
3	459	55.884724966868	57
3	469	57.101633081562	58
3	473	57.13100133836	59
3	481	58.564998070192	60
3	493	60.380943398511	61
3	497	60.436818864112	62
3	501	60.498797532996	63
3	505	60.526278083447	64
3	509	60.564965567873	65
3	519	61.69621455006	66
3	531	63.198178028698	67
3	547	66.241538297822	68
3	551	66.29499570682	69
3	555	66.337273466777	70
3	559	66.380015207249	71
3	563	66.416357928719	72
3	567	66.452873958526	73
3	571	66.480356703144	74
3	581	68.200008706361	75
3	585	68.241548787652	76
3	589	68.279976185571	77
3	597	69.582857515501	78
3	617	71.85052428375	79
3	627	73.185477718039	80
3	639	74.481078086846	81
3	649	75.70544928146	82
3	653	75.744529421539	83
3	657	75.785784327931	84
3	661	75.855525663395	85
3	665	75.899065915527	86
3	677	76.719294097058	87
3	681	76.797140463147	88
3	685	76.83267577016	89
3	689	76.873655704163	90
3	709	79.62849042031	91
3	713	79.675539080679	92
3	717	79.698422499774	93
3	721	79.730652368992	94
3	725	79.777092452537	95
3	737	81.33540687778	96
3	741	81.380873340649	97
3	745	81.44792669179	98
3	749	81.478336037154	99
3	759	83.331933830797	100
3	769	85.306241643413	101
3	773	85.33055832412	102
3	783	87.172426177902	103
3	787	87.269184558238	104
3	805	90.356737789472	105
3	815	91.580142884298	106
3	825	93.163900483183	107
3	843	95.544152296266	108
3	847	95.56689168965	109
3	859	96.679242114978	110
3	867	97.868643078293	111
3	877	99.627310838282	112
3	881	99.664097363685	113
3	885	99.701327155446	114
3	895	100.942250818639	115
3	913	104.012173415392	116
3	923	105.535917099959	117
3	935	106.761089622943	118
3	945	108.373972405997	119
3	957	110.009200443657	120
3	975	113.015267024827	121
3	979	113.040960629069	122
3	983	113.067379691002	123
3	1003	115.952834284208	124
3	1007	115.980520328338	125
3	1011	116.008406107524	126
3	1021	117.387633072241	127
3	1031	118.760979030134	128
3	1035	118.828341291341	129
3	1039	118.853610098661	130
3	1043	118.8855577539	131
3	1047	118.931009157597	132
3	1059	119.850732096018	133
3	1063	119.891066503665	134
3	1067	119.92775492293	135
3	1075	121.1499267596	136
3	1079	121.19248260761	137
3	1083	121.222064437339	138
3	1093	122.606127524231	139
3	1103	123.711943008777	140
3	1121	126.645692211101	141
3	1125	126.70198834984	142
3	1135	127.897459168023	143
3	1147	129.153994251105	144
3	1155	130.636247936116	145
3	1165	132.605784895526	146
3	1177	134.094661881668	147
3	1189	135.690520754322	148
3	1193	135.715959325606	149
3	1197	135.758840822375	150
3	1201	135.793314656897	151
3	1211	137.463181053956	152
3	1221	139.065987388425	153
3	1239	142.175377340562	154
3	1243	142.212024394161	155
3	1247	142.266026245845	156
3	1251	142.307641267152	157
3	1255	142.342722906855	158
3	1263	143.664610589186	159
3	1273	144.829320281427	160
3	1277	144.858899178419	161
3	1293	148.068688058931	162
3	1297	148.096171393031	163
3	1307	149.14297213365	164
3	1311	149.201691078772	165
3	1321	150.726419974039	166
3	1329	152.022075217859	167
3	1339	153.53751478812	168
3	1347	155.489489393018	169
3	1357	157.391251388559	170
3	1361	157.430882672469	171
3	1365	157.455433003467	172
3	1375	158.567488918469	173
3	1379	158.614230223833	174
3	1383	158.64709878694	175
3	1387	158.67941576105	176
3	1397	159.718091254652	177
3	1405	161.406913787209	178
3	1409	161.434348536615	179
3	1419	162.748661300761	180
3	1429	164.713226335509	181
3	1437	166.191985721345	182
3	1447	167.543976152574	183
3	1451	167.591031429326	184
3	1461	169.278851136144	185
3	1471	170.610082986989	186
3	1481	171.660433788726	187
3	1489	173.592598837113	188
3	1493	173.629046341767	189
3	1503	175.320849880823	190
3	1507	175.354648446601	191
3	1511	175.412826537993	192
3	1521	176.29041140331	193
3	1539	179.602151642681	194
3	1543	179.636947020097	195
3	1567	185.101611337102	196
3	1571	185.127127694699	197
3	1575	185.157750778562	198
3	1585	186.680566131588	199
3	1589	186.729963404325	200
3	1607	189.778167762439	201
3	1635	193.95015468091	202
3	1645	194.959339845524	203
3	1649	195.014796036246	204
3	1653	195.049596240207	205
3	1657	195.084237335029	206
3	1667	196.31956484881	207
3	1671	196.349279176055	208
3	1683	197.408758843267	209
3	1687	197.469988720732	210
3	1691	197.514666951803	211
3	1701	198.453977595091	212
3	1705	198.493636096088	213
3	1709	198.527780075891	214
3	1719	200.197724663276	215
3	1723	200.258055813503	216
3	1731	201.888918231892	217
3	1735	201.936108071926	218
3	1743	202.899264895413	219
3	1761	205.327340539817	220
3	1779	208.770328818623	221
3	1795	212.391297200059	222
3	1799	212.422474363576	223
3	1809	213.835060872585	224
3	1821	215.508655650226	225
3	1831	217.160696472092	226
3	1841	218.183119284739	227
3	1849	220.016297432303	228
3	1853	220.090522096281	229
3	1857	220.114559576419	230
3	1861	220.144783210443	231
3	1871	221.258475727627	232
3	1881	222.7757251096	233
3	1885	222.80876469109	234
3	1893	223.930627561857	235
3	1897	223.974278858907	236
3	1901	224.005629368927	237
3	1905	224.058210018026	238
3	1913	225.27142037974	239
3	1917	225.309977386076	240
3	1921	225.351352676686	241
3	1929	226.646871776271	242
3	1933	226.707995259072	243
3	1941	228.137637428619	244
3	1945	228.169187383716	245
3	1953	229.310826840866	246
3	1957	229.336977704854	247
3	1975	232.192244431052	248
3	1987	233.727590581433	249
3	1997	234.897274288529	250
3	2007	236.86148684178	251
3	2011	236.892080940792	252
3	2015	236.932428240863	253
3	2019	236.973940402752	254
3	2029	238.29782191634	255
3	2033	238.346724222392	256
3	2043	239.313890425445	257
4	11	0.316678933816	0
4	23	2.214011203167	1
4	31	3.575610034048	2
4	47	4.900464916127	3
4	61	6.745222012705	4
4	73	7.937958357416	5
4	93	9.381754360545	6
4	101	11.256534086302	7
4	127	12.885828233457	8
4	141	14.140127913307	9
4	161	15.872829926114	10
4	181	17.675212088989	11
4	189	19.57176207993	12
4	199	20.997728549604	13
4	209	22.191029396541	14
4	219	23.280046889629	15
4	227	25.095602828324	16
4	239	26.828524992483	17
4	247	28.773326226857	18
4	263	30.464860420659	19
4	273	32.159275319676	20
4	283	33.603207979696	21
4	291	34.613924384228	22
4	299	36.184937809823	23
4	309	37.913820816658	24
4	319	39.0005228358	25
4	335	40.14152800693	26
4	345	41.204214036055	27
4	357	42.641537034675	28
4	365	44.446515895278	29
4	373	46.261740963812	30
4	385	47.715545531292	31
4	393	48.865094297718	32
4	403	50.210684804861	33
4	423	51.668333794427	34
4	435	53.006100589163	35
4	451	54.195525922519	36
4	463	55.912710381349	37
4	475	57.150813396682	38
4	485	58.592187140276	39
4	513	60.595861987835	40
4	523	61.737387212464	41
4	533	63.208380684168	42
4	541	65.154813310401	43
4	573	66.493001233513	44
4	591	68.304914650249	45
4	601	69.620571250844	46
4	609	70.784878734253	47
4	619	71.865936614733	48
4	631	73.212313504181	49
4	641	74.496053530241	50
4	669	75.961466277371	51
4	693	76.899141557582	52
4	701	78.597919725205	53
4	729	79.81128256753	54
4	751	81.505169271231	55
4	761	83.342147839019	56
4	775	85.346470253899	57
4	791	87.306463406934	58
4	799	88.690074107242	59
4	807	90.367640356686	60
4	817	91.592332757704	61
4	827	93.190220744214	62
4	835	94.318016638135	63
4	851	95.599454472666	64
4	861	96.689991372708	65
4	871	97.904230593224	66
4	889	99.749066351904	67
4	897	100.96497109059	68
4	905	102.28401223583	69
4	917	104.04884942387	70
4	927	105.563525375862	71
4	937	106.797066276688	72
4	949	108.415360623723	73
4	961	110.066602668118	74
4	969	111.281050928449	75
4	987	113.127839716219	76
4	995	114.537561738166	77
4	1013	116.02764035406	78
4	1023	117.400307689468	79
4	1051	118.956440752576	80
4	1069	119.941599710653	81
4	1085	121.233601497271	82
4	1095	122.620448221726	83
4	1107	123.762795000031	84
4	1115	125.012130776097	85
4	1127	126.712391457392	86
4	1139	127.958532431605	87
4	1149	129.166628011202	88
4	1159	130.66168092273	89
4	1169	132.641902289255	90
4	1181	134.15737790142	91
4	1203	135.824730065071	92
4	1215	137.520581252363	93
4	1225	139.114242873317	94
4	1233	140.84701502084	95
4	1257	142.36385588535	96
4	1267	143.715756843876	97
4	1279	144.869356673972	98
4	1287	146.43368991425	99
4	1299	148.115551400931	100
4	1315	149.230180099621	101
4	1323	150.736650018411	102
4	1333	152.053892718046	103
4	1341	153.553896022159	104
4	1349	155.533161728494	105
4	1367	157.471419604816	106
4	1389	158.696172752203	107
4	1399	159.736010182853	108
4	1411	161.472609825553	109
4	1421	162.771606869415	110
4	1431	164.733643730214	111
4	1439	166.213305203062	112
4	1453	167.621167591153	113
4	1465	169.331020994481	114
4	1475	170.643676591035	115
4	1483	171.685617168182	116
4	1495	173.653784557642	117
4	1513	175.456528287049	118
4	1523	176.308183920223	119
4	1531	177.686175886058	120
4	1545	179.649705334794	121
4	1553	181.573101747538	122
4	1561	183.273317683755	123
4	1577	185.178510073138	124
4	1591	186.758677961652	125
4	1599	187.785775842583	126
4	1611	189.839968376476	127
4	1619	190.838717052472	128
4	1627	192.395386888287	129
4	1637	193.966411069313	130
4	1659	195.095405588194	131
4	1675	196.38311723845	132
4	1693	197.528980682868	133
4	1711	198.544285533931	134
4	1725	200.275999430124	135
4	1737	201.951807075461	136
4	1745	202.911712196017	137
4	1753	204.123652017829	138
4	1763	205.359229204266	139
4	1771	207.292488801166	140
4	1781	208.792993128447	141
4	1789	210.504316050404	142
4	1801	212.432739419186	143
4	1813	213.86845725884	144
4	1823	215.520459079317	145
4	1833	217.188166250776	146
4	1843	218.210567465241	147
4	1863	220.16000909724	148
4	1875	221.295956195159	149
4	1887	222.82689422885	150
4	1907	224.083247272537	151
4	1923	225.378041979448	152
4	1935	226.721160301176	153
4	1947	228.184330263855	154
4	1959	229.347450514767	155
4	1967	230.393229965953	156
4	1979	232.24939407719	157
4	1989	233.740159392465	158
4	1999	234.916941312947	159
4	2021	236.990178570763	160
4	2035	238.361622480086	161
4	2045	239.326266411504	162
5	12	0.326678933816	0
5	24	2.224011203167	1
5	32	3.585610034048	2
5	48	4.910464916127	3
5	62	6.755222012705	4
5	74	7.947958357416	5
5	94	9.391754360545	6
5	102	11.266534086302	7
5	128	12.895828233457	8
5	142	14.150127913307	9
5	162	15.882829926114	10
5	182	17.685212088989	11
5	190	19.58176207993	12
5	200	21.007728549604	13
5	210	22.201029396541	14
5	220	23.290046889629	15
5	228	25.105602828324	16
5	240	26.838524992483	17
5	248	28.783326226857	18
5	264	30.474860420659	19
5	274	32.169275319676	20
5	284	33.613207979696	21
5	292	34.623924384228	22
5	300	36.194937809823	23
5	310	37.923820816658	24
5	320	39.0105228358	25
5	336	40.15152800693	26
5	346	41.214214036055	27
5	358	42.651537034675	28
5	366	44.456515895278	29
5	374	46.271740963812	30
5	386	47.725545531292	31
5	394	48.875094297718	32
5	404	50.220684804861	33
5	424	51.678333794427	34
5	436	53.016100589163	35
5	452	54.205525922519	36
5	464	55.922710381349	37
5	476	57.160813396682	38
5	486	58.602187140276	39
5	514	60.605861987835	40
5	524	61.747387212464	41
5	534	63.218380684168	42
5	542	65.164813310401	43
5	574	66.503001233513	44
5	592	68.314914650249	45
5	602	69.630571250844	46
5	610	70.794878734253	47
5	620	71.875936614733	48
5	632	73.222313504181	49
5	642	74.506053530241	50
5	670	75.971466277371	51
5	694	76.909141557582	52
5	702	78.607919725205	53
5	730	79.82128256753	54
5	752	81.515169271231	55
5	762	83.352147839019	56
5	776	85.356470253899	57
5	792	87.316463406934	58
5	800	88.700074107242	59
5	808	90.377640356686	60
5	818	91.602332757704	61
5	828	93.200220744214	62
5	836	94.328016638135	63
5	852	95.609454472666	64
5	862	96.699991372708	65
5	872	97.914230593224	66
5	890	99.759066351904	67
5	898	100.97497109059	68
5	906	102.29401223583	69
5	918	104.05884942387	70
5	928	105.573525375862	71
5	938	106.807066276688	72
5	950	108.425360623723	73
5	962	110.076602668118	74
5	970	111.291050928449	75
5	988	113.137839716219	76
5	996	114.547561738166	77
5	1014	116.03764035406	78
5	1024	117.410307689468	79
5	1052	118.966440752576	80
5	1070	119.951599710653	81
5	1086	121.243601497271	82
5	1096	122.630448221726	83
5	1108	123.772795000031	84
5	1116	125.022130776097	85
5	1128	126.722391457392	86
5	1140	127.968532431605	87
5	1150	129.176628011202	88
5	1160	130.67168092273	89
5	1170	132.651902289255	90
5	1182	134.16737790142	91
5	1204	135.834730065071	92
5	1216	137.530581252363	93
5	1226	139.124242873317	94
5	1234	140.85701502084	95
5	1258	142.37385588535	96
5	1268	143.725756843876	97
5	1280	144.879356673972	98
5	1288	146.44368991425	99
5	1300	148.125551400931	100
5	1316	149.240180099621	101
5	1324	150.746650018411	102
5	1334	152.063892718046	103
5	1342	153.563896022159	104
5	1350	155.543161728494	105
5	1368	157.481419604816	106
5	1390	158.706172752203	107
5	1400	159.746010182853	108
5	1412	161.482609825553	109
5	1422	162.781606869415	110
5	1432	164.743643730214	111
5	1440	166.223305203062	112
5	1454	167.631167591153	113
5	1466	169.341020994481	114
5	1476	170.653676591035	115
5	1484	171.695617168182	116
5	1496	173.663784557642	117
5	1514	175.466528287049	118
5	1524	176.318183920223	119
5	1532	177.696175886058	120
5	1546	179.659705334794	121
5	1554	181.583101747538	122
5	1562	183.283317683755	123
5	1578	185.188510073138	124
5	1592	186.768677961652	125
5	1600	187.795775842583	126
5	1612	189.849968376476	127
5	1620	190.848717052472	128
5	1628	192.405386888287	129
5	1638	193.976411069313	130
5	1660	195.105405588194	131
5	1676	196.39311723845	132
5	1694	197.538980682868	133
5	1712	198.554285533931	134
5	1726	200.285999430124	135
5	1738	201.961807075461	136
5	1746	202.921712196017	137
5	1754	204.133652017829	138
5	1764	205.369229204266	139
5	1772	207.302488801166	140
5	1782	208.802993128447	141
5	1790	210.514316050404	142
5	1802	212.442739419186	143
5	1814	213.87845725884	144
5	1824	215.530459079317	145
5	1834	217.198166250776	146
5	1844	218.220567465241	147
5	1864	220.17000909724	148
5	1876	221.305956195159	149
5	1888	222.83689422885	150
5	1908	224.093247272537	151
5	1924	225.388041979448	152
5	1936	226.731160301176	153
5	1948	228.194330263855	154
5	1960	229.357450514767	155
5	1968	230.403229965953	156
5	1980	232.25939407719	157
5	1990	233.750159392465	158
5	2000	234.926941312947	159
5	2022	237.000178570763	160
5	2036	238.371622480086	161
5	2046	239.336266411504	162
6	53	6.689038246211	0
6	57	6.716267747018	1
6	69	7.914595153761	2
6	81	9.275450069156	3
6	85	9.318227427991	4
6	107	12.717552657323	5
6	111	12.746161974051	6
6	115	12.784551513666	7
6	123	12.859867361106	8
6	133	14.091495256097	9
6	137	14.112274853213	10
6	151	15.745156360704	11
6	155	15.797246288111	12
6	169	17.567108748082	13
6	173	17.601773629843	14
6	235	26.792642289678	15
6	253	30.363115202417	16
6	269	32.111090478722	17
6	279	33.573210355478	18
6	353	42.608307609821	19
6	419	51.63731074677	20
6	431	52.957112938783	21
6	443	54.138907291661	22
6	447	54.165688284012	23
6	471	57.111850118719	24
6	491	60.365933180023	25
6	495	60.416597625717	26
6	499	60.451609548231	27
6	503	60.512500795366	28
6	529	63.187475862154	29
6	553	66.31078450667	30
6	557	66.366843502247	31
6	561	66.403389551178	32
6	569	66.463738512331	33
6	579	68.177727874237	34
6	583	68.216838095351	35
6	587	68.255813745942	36
6	615	71.835627021231	37
6	625	73.168898028525	38
6	647	75.668623833947	39
6	651	75.73069748516	40
6	663	75.881591399255	41
6	679	76.732439913904	42
6	683	76.807788534713	43
6	687	76.848032380782	44
6	711	79.655514054483	45
6	719	79.716531233291	46
6	723	79.764900587561	47
6	735	81.31478975619	48
6	757	83.309190064807	49
6	767	85.277577586446	50
6	771	85.320148043059	51
6	813	91.567295783383	52
6	857	96.661768268869	53
6	879	99.639862797241	54
6	883	99.689316459202	55
6	911	103.99548761336	56
6	977	113.026536506114	57
6	981	113.056311545262	58
6	1001	115.932439075687	59
6	1005	115.965152321758	60
6	1009	115.991743911756	61
6	1019	117.373652576536	62
6	1029	118.750416418286	63
6	1033	118.811174846493	64
6	1037	118.838587270615	65
6	1045	118.908996265895	66
6	1061	119.863839016656	67
6	1065	119.901460131912	68
6	1077	121.169801713176	69
6	1081	121.206837256575	70
6	1091	122.569259798349	71
6	1101	123.691486844497	72
6	1123	126.662976963565	73
6	1133	127.876442332393	74
6	1145	129.140748426402	75
6	1175	134.080120400774	76
6	1187	135.674228705857	77
6	1191	135.704706169754	78
6	1195	135.741933376661	79
6	1199	135.770792254615	80
6	1249	142.293068249096	81
6	1253	142.323790659399	82
6	1275	144.841024548976	83
6	1295	148.084227813615	84
6	1305	149.12424040972	85
6	1355	157.366954678866	86
6	1373	158.54966953316	87
6	1377	158.577488946344	88
6	1385	158.660051805253	89
6	1395	159.691992280582	90
6	1407	161.420960012418	91
6	1417	162.738413374719	92
6	1459	169.25999252097	93
6	1491	173.615351119719	94
6	1501	175.293323595365	95
6	1505	175.342081472925	96
6	1509	175.373269222916	97
6	1519	176.278166554192	98
6	1541	179.625167691742	99
6	1569	185.114486993418	100
6	1573	185.14582074403	101
6	1583	186.66705017976	102
6	1605	189.759765110879	103
6	1633	193.910897218751	104
6	1647	195.002619489111	105
6	1651	195.034879504735	106
6	1665	196.260141913693	107
6	1685	197.458546682936	108
6	1699	198.442180049725	109
6	1707	198.516986550281	110
6	1759	205.310350849286	111
6	1777	208.759476724633	112
6	1797	212.40746308451	113
6	1807	213.795245410451	114
6	1829	217.138997336317	115
6	1839	218.154889066653	116
6	1859	220.125019160291	117
6	1869	221.24446771996	118
6	1883	222.794668230753	119
6	1895	223.947697088919	120
6	1899	223.992097359737	121
6	1903	224.035949659807	122
6	1915	225.281627878671	123
6	1919	225.331383234569	124
6	1955	229.326789820742	125
6	1985	233.705526775163	126
6	1995	234.886765167293	127
6	2009	236.872682643135	128
6	2013	236.912090951399	129
6	2027	238.283458658582	130
6	2031	238.331706955598	131
6	2041	239.302525814195	132

