version 2
run General-2-20230921-23:15:45-8726
attr configname General
attr datetime 20230921-23:15:45
attr experiment General
attr inifile omnetpp.ini
attr iterationvars ""
attr iterationvarsf ""
attr measurement ""
attr network Network2
attr processid 8726
attr repetition 2
attr replication #2
attr resultdir results
attr runnumber 2
attr seedset 2
param Network2.node[*].transmissionTime "uniform(1s, 2s)"
param Network2.node[*].delayTime "uniform(0.01s, 0.2s)"
param Network2.node[*].processingTime exponential(0.01s)
param Network2.node[*].lossProbability 0.0

vector 0 Network2.node[0] txVector ETV
vector 1 Network2.node[1] txVector ETV
vector 2 Network2.node[6] txVector ETV
vector 3 Network2.node[2] txVector ETV
vector 4 Network2.node[3] txVector ETV
vector 5 Network2.node[4] txVector ETV
vector 6 Network2.node[5] rxVector ETV
0	1	0.092839031499	0
0	13	1.277921112972	1
0	23	2.544748389414	2
0	33	4.090955705867	3
0	41	5.68770101389	4
0	49	6.889444240854	5
0	67	8.469448423731	6
0	79	10.01365657921	7
0	91	11.95484988207	8
0	103	13.000528847119	9
0	111	14.006073268149	10
0	121	15.031624213345	11
0	135	17.004534904165	12
0	143	18.175012036245	13
0	153	19.773992008781	14
0	167	21.669137747511	15
0	185	23.368658370124	16
0	193	25.357168076346	17
0	201	27.193685727679	18
0	211	28.423259755616	19
0	221	29.513630133607	20
0	231	30.94737604891	21
0	241	32.454993531593	22
0	251	34.232096535406	23
0	271	36.178790658965	24
0	281	37.881054899209	25
0	289	39.757616767679	26
0	299	41.333395766579	27
0	309	42.407656574874	28
0	325	43.628537793896	29
0	335	44.669806910931	30
0	347	45.916060502195	31
0	365	47.650745810728	32
0	377	49.209696603726	33
0	387	50.903849148677	34
0	405	52.527233864899	35
0	413	53.741476743735	36
0	425	55.072133647531	37
0	437	56.450136058518	38
0	447	57.777007820803	39
0	467	59.546842010712	40
0	481	60.933217733653	41
0	489	62.871130848324	42
0	507	64.351854070343	43
0	517	65.553753573002	44
0	525	67.281259055968	45
0	533	69.084434925366	46
0	543	70.215299397029	47
0	559	71.48575703406	48
0	567	72.666525363245	49
0	583	73.71725998658	50
0	605	75.457961895059	51
0	615	76.812356174712	52
0	623	77.873855392004	53
0	631	79.326673020863	54
0	657	81.28086127925	55
0	665	82.309369852555	56
0	675	83.398420050296	57
0	689	84.731193129693	58
0	707	86.155399446397	59
0	717	87.848572704962	60
0	727	89.636832203737	61
0	741	90.879791295643	62
0	751	92.229896677214	63
0	759	93.398844234667	64
0	775	94.683830854272	65
0	785	96.095648942537	66
0	793	97.759256976446	67
0	801	99.368167818779	68
0	809	101.335521123627	69
0	825	103.259743653958	70
0	835	105.15844297225	71
0	845	106.73719067478	72
0	863	108.240946957631	73
0	875	109.683232013857	74
0	885	110.943429681262	75
0	901	112.170353258749	76
0	921	113.650016897147	77
0	929	114.768964837327	78
0	937	116.057653188262	79
0	959	117.78077908235	80
0	967	118.876914462097	81
0	975	119.897479065251	82
0	987	121.497058274014	83
0	997	123.070602636807	84
0	1005	124.416438083653	85
0	1015	126.218039860041	86
0	1025	127.742742381781	87
0	1035	128.898503362458	88
0	1045	130.233719454637	89
0	1053	131.602025212512	90
0	1063	133.286506541797	91
0	1073	134.732743763623	92
0	1085	135.956854189073	93
0	1107	137.493663215337	94
0	1121	139.212654843487	95
0	1129	140.946106813409	96
0	1139	142.7683635189	97
0	1147	143.854629954583	98
0	1155	145.505174267366	99
0	1165	146.68967853629	100
0	1173	148.601306623574	101
0	1191	149.882480086088	102
0	1201	151.334166783867	103
0	1211	152.342100724373	104
0	1223	153.798640636057	105
0	1237	155.444424586632	106
0	1245	156.820881685969	107
0	1253	158.220063901302	108
0	1271	159.758872952108	109
0	1279	161.606047206121	110
0	1287	163.149085949436	111
0	1295	165.052340920344	112
0	1307	166.237799495719	113
0	1317	167.393526216764	114
0	1327	168.428696116693	115
0	1339	170.20022628529	116
0	1347	171.533898055116	117
0	1359	173.155740652029	118
0	1367	174.496297416306	119
0	1377	175.641453044751	120
0	1385	177.022458532156	121
0	1393	178.974892831903	122
0	1407	180.963113488892	123
0	1417	182.820416427014	124
0	1427	184.533419274754	125
0	1435	185.958918482793	126
0	1447	187.538771344611	127
0	1455	188.768277429074	128
0	1475	190.531962480426	129
0	1483	192.297358586949	130
0	1511	193.666462830298	131
0	1531	195.661937612372	132
0	1551	196.681119839458	133
0	1559	197.855021893077	134
0	1573	199.767878476328	135
0	1587	201.491924081261	136
0	1595	203.061622850395	137
0	1613	204.562382598671	138
0	1635	206.016391374201	139
0	1655	207.691380553443	140
0	1675	208.716554982618	141
0	1699	210.07669455142	142
0	1713	212.051801477822	143
0	1725	213.458600931831	144
0	1737	215.068211424893	145
0	1745	216.200047340274	146
0	1765	218.195657342469	147
0	1773	220.173398635845	148
0	1785	221.42098579093	149
0	1797	222.506520469469	150
0	1805	224.484227790759	151
0	1815	226.218240846909	152
0	1825	228.118512907328	153
0	1837	229.222286777135	154
0	1849	230.613222786954	155
0	1863	231.624203221903	156
0	1895	233.52952832592	157
0	1915	235.302099709663	158
0	1923	236.738563721798	159
0	1935	237.814963954066	160
0	1945	239.799793791522	161
1	3	0.129654214104	0
1	15	1.297626835553	1
1	25	2.559979190666	2
1	35	4.103517695001	3
1	43	5.707928830708	4
1	51	6.901215176558	5
1	69	8.480305036664	6
1	81	10.03064847822	7
1	93	12.005685971184	8
1	105	13.023566723355	9
1	113	14.026926340754	10
1	123	15.042820793695	11
1	137	17.035876181937	12
1	145	18.186138937515	13
1	155	19.810462486566	14
1	169	21.68195887244	15
1	187	23.379159395281	16
1	195	25.379910170265	17
1	203	27.215880907757	18
1	213	28.437695169181	19
1	223	29.532477429308	20
1	233	30.964835902477	21
1	243	32.471980733354	22
1	253	34.24557430665	23
1	273	36.195746489517	24
1	283	37.902374051665	25
1	291	39.773045217713	26
1	301	41.347338737607	27
1	311	42.438911183516	28
1	327	43.644082769758	29
1	337	44.695425004606	30
1	349	45.962385991027	31
1	367	47.662744357151	32
1	379	49.232926787461	33
1	389	50.918206545031	34
1	407	52.548610143206	35
1	415	53.753036505931	36
1	427	55.086249006867	37
1	439	56.480182764756	38
1	449	57.802890226231	39
1	469	59.566286065956	40
1	483	60.944661366495	41
1	491	62.882877679429	42
1	509	64.385612020833	43
1	519	65.569909700787	44
1	527	67.294834549027	45
1	535	69.096842160189	46
1	545	70.231427228612	47
1	561	71.496685309119	48
1	569	72.680147613581	49
1	585	73.729796031152	50
1	607	75.470096329311	51
1	617	76.838552522014	52
1	625	77.90317250542	53
1	633	79.341136303162	54
1	659	81.297985282621	55
1	667	82.343845440193	56
1	677	83.420712275781	57
1	691	84.759778027293	58
1	709	86.175834140599	59
1	719	87.861804931272	60
1	729	89.677556510735	61
1	743	90.895943385202	62
1	753	92.246299727847	63
1	761	93.421957403578	64
1	777	94.696272242759	65
1	787	96.120054345703	66
1	795	97.780366443632	67
1	803	99.395094902547	68
1	811	101.353592811206	69
1	827	103.281002149346	70
1	837	105.170886765313	71
1	847	106.754146296358	72
1	865	108.254442827391	73
1	877	109.70980482455	74
1	887	110.960535680968	75
1	903	112.187913465166	76
1	923	113.704460381688	77
1	931	114.786566343677	78
1	939	116.073049324087	79
1	961	117.815688087918	80
1	969	118.887974662189	81
1	977	119.921746837535	82
1	989	121.521330001221	83
1	999	123.13062421037	84
1	1007	124.471846136093	85
1	1017	126.229214709288	86
1	1027	127.754485297186	87
1	1037	128.936863223976	88
1	1047	130.263640663259	89
1	1055	131.622535793714	90
1	1065	133.300731087937	91
1	1075	134.749006903099	92
1	1087	135.972297478188	93
1	1109	137.514376240746	94
1	1123	139.231017249909	95
1	1131	140.97876172818	96
1	1141	142.786249961191	97
1	1149	143.868526750331	98
1	1157	145.523409826347	99
1	1167	146.699697794286	100
1	1175	148.616422452746	101
1	1193	149.897017318345	102
1	1203	151.352171499311	103
1	1213	152.377994874401	104
1	1225	153.811161241951	105
1	1239	155.463379799323	106
1	1247	156.833288143697	107
1	1255	158.234210507056	108
1	1273	159.776555192313	109
1	1281	161.625509148736	110
1	1289	163.164136380922	111
1	1297	165.064316669023	112
1	1309	166.257306076526	113
1	1319	167.405768482511	114
1	1329	168.468675445715	115
1	1341	170.219351879181	116
1	1349	171.552235467142	117
1	1361	173.177620773968	118
1	1369	174.511332168217	119
1	1379	175.662956572026	120
1	1387	177.036656504537	121
1	1395	178.990853946132	122
1	1409	180.975203240959	123
1	1419	182.838983831297	124
1	1429	184.54372546405	125
1	1437	185.97218720783	126
1	1449	187.554844135959	127
1	1457	188.784444077723	128
1	1477	190.5440579295	129
1	1485	192.32384663877	130
1	1513	193.702654332436	131
1	1533	195.681554477551	132
1	1553	196.716631297682	133
1	1561	197.875401617713	134
1	1575	199.795242140134	135
1	1589	201.513968387273	136
1	1597	203.071818614934	137
1	1615	204.610970347751	138
1	1637	206.059157085163	139
1	1657	207.702213127919	140
1	1677	208.744570996203	141
1	1701	210.128182414407	142
1	1715	212.10379389424	143
1	1727	213.471443371971	144
1	1739	215.079781009217	145
1	1747	216.223417194998	146
1	1767	218.22344059518	147
1	1775	220.186423668997	148
1	1787	221.432641347838	149
1	1799	222.517880806092	150
1	1807	224.513305438833	151
1	1817	226.232782281889	152
1	1827	228.131841181501	153
1	1839	229.239745728535	154
1	1851	230.628329882546	155
1	1865	231.638098739205	156
1	1897	233.547068811377	157
1	1917	235.314170552166	158
1	1925	236.75109636802	159
1	1937	237.827127612425	160
1	1947	239.818932736595	161
2	5	0.145369217285	0
2	57	7.007277545557	1
2	61	7.052215050152	2
2	71	8.507614576459	3
2	85	10.06641585014	4
2	95	12.022972279867	5
2	127	15.109053540345	6
2	147	18.198634299407	7
2	157	19.828231938589	8
2	161	19.858410326156	9
2	177	21.726282545791	10
2	215	28.458734243496	11
2	245	32.484766857141	12
2	263	34.345866964246	13
2	313	42.461394168164	14
2	353	45.994870641021	15
2	357	46.04644789308	16
2	371	47.696681887489	17
2	381	49.243347994493	18
2	391	50.93386522723	19
2	399	51.02273190245	20
2	417	53.78434261656	21
2	431	55.134130244747	22
2	441	56.504004395287	23
2	451	57.822157194042	24
2	455	57.85259157806	25
2	459	57.879788995428	26
2	471	59.580121032478	27
2	475	59.626702582528	28
2	493	62.893211736867	29
2	501	62.982513619552	30
2	551	70.305115499505	31
2	575	72.720255627786	32
2	589	73.761889794515	33
2	593	73.799611014386	34
2	597	73.832259865879	35
2	609	75.480727364974	36
2	639	79.383936728693	37
2	643	79.410143357384	38
2	647	79.465227271806	39
2	651	79.564644899817	40
2	669	82.359661559702	41
2	679	83.434224956714	42
2	683	83.518331249192	43
2	695	84.788315124693	44
2	721	87.875173007345	45
2	733	89.710912684321	46
2	765	93.456394134406	47
2	769	93.496509488705	48
2	815	101.408640946871	49
2	819	101.4379532807	50
2	829	103.300746482694	51
2	839	105.185324905909	52
2	849	106.766355912914	53
2	879	109.722391920423	54
2	891	110.981794337415	55
2	895	111.037373885213	56
2	907	112.230437275932	57
2	911	112.265196179693	58
2	941	116.092321499605	59
2	945	116.133291794655	60
2	949	116.189052530614	61
2	981	119.94327036465	62
2	1019	126.267594558693	63
2	1039	128.953048945114	64
2	1057	131.647869352767	65
2	1067	133.315552300255	66
2	1077	134.770173313309	67
2	1089	135.995081525448	68
2	1111	137.540823922823	69
2	1115	137.606448884357	70
2	1185	148.751973497131	71
2	1205	151.364784468794	72
2	1231	153.883931078784	73
2	1259	158.271244125988	74
2	1263	158.320325042986	75
2	1311	166.283469452857	76
2	1331	168.486358799291	77
2	1351	171.573164003402	78
2	1371	174.559551365893	79
2	1411	180.987321079842	80
2	1439	185.989113555084	81
2	1463	188.826152142133	82
2	1467	188.847749959894	83
2	1489	192.359770101186	84
2	1493	192.421041007484	85
2	1501	192.519107707493	86
2	1521	193.815128524778	87
2	1525	193.840460029784	88
2	1539	195.753112638639	89
2	1565	197.907835661113	90
2	1577	199.817144629062	91
2	1601	203.100973761911	92
2	1617	204.675370986109	93
2	1625	204.75030285216	94
2	1647	206.134001267119	95
2	1659	207.731663817232	96
2	1663	207.779553435456	97
2	1667	207.837667559841	98
2	1681	208.824332163525	99
2	1685	208.859145671919	100
2	1703	210.141322376292	101
2	1719	212.146368224461	102
2	1731	213.51271267544	103
2	1749	216.234369025374	104
2	1753	216.287414924262	105
2	1757	216.311014914665	106
2	1777	220.208670135173	107
2	1809	224.52555518746	108
2	1831	228.163056920102	109
2	1843	229.273220130329	110
2	1853	230.648578074509	111
2	1857	230.68581986457	112
2	1869	231.667954560262	113
2	1873	231.705691059641	114
2	1877	231.759283424269	115
2	1881	231.791264841728	116
2	1889	231.860002029513	117
2	1907	233.658292654526	118
2	1927	236.761128455519	119
3	7	0.159233733975	0
3	17	1.31911619067	1
3	29	2.590411069986	2
3	37	4.128105966042	3
3	55	6.947271252469	4
3	59	7.025651050202	5
3	63	7.077201137386	6
3	73	8.522827967568	7
3	83	10.049856916999	8
3	87	10.079883424881	9
3	97	12.036881118944	10
3	115	14.051514486302	11
3	125	15.085644163126	12
3	129	15.135322032948	13
3	149	18.225095896238	14
3	159	19.838640275567	15
3	163	19.886601461057	16
3	171	21.693130764951	17
3	175	21.714208778947	18
3	179	21.757484377115	19
3	189	23.393240501288	20
3	207	27.241144147912	21
3	217	28.469042632704	22
3	225	29.548195947212	23
3	237	31.004111927361	24
3	247	32.501334202701	25
3	257	34.279954860186	26
3	261	34.332536560465	27
3	265	34.356568348511	28
3	275	36.239208087183	29
3	295	39.809789676649	30
3	303	41.370457295179	31
3	315	42.471806761846	32
3	319	42.496033291108	33
3	331	43.669104124933	34
3	341	44.739735263045	35
3	351	45.974603674693	36
3	355	46.023953951894	37
3	359	46.057069920024	38
3	369	47.682133048194	39
3	373	47.751655898872	40
3	383	49.272471205634	41
3	393	50.961288664333	42
3	397	51.000992290559	43
3	401	51.038470797189	44
3	419	53.794644958878	45
3	429	55.116492365748	46
3	433	55.150079810112	47
3	443	56.518235289821	48
3	453	57.83839736767	49
3	457	57.8665002279	50
3	461	57.907423932625	51
3	473	59.616683738207	52
3	477	59.667556665916	53
3	495	62.918124856147	54
3	499	62.949095560531	55
3	503	62.995310033132	56
3	513	64.437563979097	57
3	529	67.319440452334	58
3	539	69.117395932876	59
3	549	70.278375437378	60
3	553	70.318756756348	61
3	563	71.511830205977	62
3	573	72.709974263354	63
3	577	72.741264569726	64
3	587	73.750105430944	65
3	591	73.780030943769	66
3	595	73.817516166596	67
3	599	73.853633168932	68
3	611	75.507331186518	69
3	637	79.366510594685	70
3	641	79.397353004785	71
3	645	79.428727216655	72
3	649	79.540271946601	73
3	653	79.58725556877	74
3	671	82.370185626728	75
3	681	83.469895274436	76
3	685	83.53336614174	77
3	693	84.777564382953	78
3	697	84.810855696167	79
3	701	84.862249293437	80
3	711	86.202574848757	81
3	723	87.891603350457	82
3	731	89.694075523107	83
3	735	89.735735879322	84
3	745	90.908627890067	85
3	763	93.440511994118	86
3	767	93.482450137923	87
3	771	93.527042669254	88
3	781	94.72520003542	89
3	805	99.408674255782	90
3	813	101.365042454318	91
3	817	101.424171951642	92
3	821	101.470572881596	93
3	831	103.311907415929	94
3	841	105.214828449064	95
3	851	106.776746994206	96
3	855	106.81312924621	97
3	859	106.841659661624	98
3	867	108.294945922013	99
3	871	108.353742468202	100
3	881	109.732645546218	101
3	889	110.971696668034	102
3	893	110.992908010055	103
3	897	111.053708862048	104
3	905	112.202425812357	105
3	909	112.247560170258	106
3	913	112.28215346051	107
3	917	112.326101777458	108
3	925	113.720664534391	109
3	943	116.123170550639	110
3	947	116.165312913431	111
3	951	116.20583534258	112
3	955	116.236042996881	113
3	963	117.839140941586	114
3	971	118.898457426797	115
3	979	119.932505214484	116
3	983	119.955219089928	117
3	991	121.551365514889	118
3	1001	123.170953557891	119
3	1011	124.502121524825	120
3	1021	126.281942633239	121
3	1031	127.781162199006	122
3	1041	128.971566524048	123
3	1059	131.660655681046	124
3	1069	133.334453462027	125
3	1079	134.786413316979	126
3	1091	136.017029323932	127
3	1095	136.042706391978	128
3	1099	136.09364812581	129
3	1103	136.120790435845	130
3	1113	137.595720406324	131
3	1117	137.626188621893	132
3	1135	141.031302645397	133
3	1161	145.56513992922	134
3	1179	148.645223787329	135
3	1183	148.698716368	136
3	1187	148.773007640238	137
3	1197	149.924227901453	138
3	1207	151.398844620539	139
3	1217	152.417159187475	140
3	1229	153.863036866303	141
3	1233	153.89633592471	142
3	1241	155.509147270291	143
3	1257	158.259572199488	144
3	1261	158.300366253055	145
3	1265	158.336491627507	146
3	1275	159.803513643324	147
3	1283	161.678543982038	148
3	1291	163.185903809648	149
3	1301	165.156688682908	150
3	1313	166.294215140338	151
3	1323	167.430645791724	152
3	1333	168.503071292901	153
3	1343	170.249927914495	154
3	1353	171.624184934359	155
3	1363	173.234074167015	156
3	1373	174.571515825624	157
3	1389	177.046733638073	158
3	1399	179.019959916615	159
3	1403	179.042136834383	160
3	1413	181.01718336863	161
3	1423	182.881057905437	162
3	1431	184.559344097056	163
3	1441	186.009053268585	164
3	1461	188.814199761672	165
3	1465	188.836227976689	166
3	1469	188.858229634711	167
3	1487	192.345996779373	168
3	1491	192.370023492796	169
3	1495	192.437778736155	170
3	1499	192.488024892825	171
3	1503	192.533284353539	172
3	1507	192.579910414128	173
3	1515	193.735735902307	174
3	1519	193.771526397072	175
3	1523	193.826256949477	176
3	1527	193.856368496078	177
3	1537	195.735498097349	178
3	1541	195.763903193273	179
3	1545	195.822542220829	180
3	1555	196.732746776501	181
3	1563	197.896593796716	182
3	1567	197.919011467012	183
3	1579	199.853037372973	184
3	1583	199.911825627841	185
3	1599	203.083262172809	186
3	1603	203.134202551203	187
3	1607	203.178823548992	188
3	1619	204.704262370325	189
3	1623	204.731419147854	190
3	1627	204.796935362661	191
3	1631	204.836059538084	192
3	1641	206.091043735002	193
3	1645	206.122945244098	194
3	1649	206.147351078156	195
3	1661	207.746831902362	196
3	1665	207.810150769813	197
3	1669	207.851957784122	198
3	1679	208.798259524071	199
3	1683	208.847944936478	200
3	1687	208.871043569059	201
3	1691	208.90580691953	202
3	1695	208.936772432451	203
3	1705	210.155931508326	204
3	1709	210.191802775791	205
3	1717	212.121967928013	206
3	1721	212.166645182319	207
3	1729	213.497324312707	208
3	1733	213.523401803949	209
3	1741	215.114425722208	210
3	1751	216.255919317815	211
3	1755	216.299287697059	212
3	1759	216.341888247942	213
3	1779	220.221813987994	214
3	1791	221.479750920683	215
3	1801	222.554075794423	216
3	1811	224.540611782641	217
3	1819	226.251492472946	218
3	1829	228.144417439593	219
3	1833	228.194257728347	220
3	1841	229.25616778225	221
3	1845	229.302485050934	222
3	1855	230.658969546006	223
3	1859	230.707874509736	224
3	1867	231.657406819197	225
3	1871	231.691509588227	226
3	1875	231.719459901784	227
3	1879	231.779742077415	228
3	1883	231.801767258259	229
3	1887	231.846574043772	230
3	1891	231.870100747074	231
3	1901	233.578633527402	232
3	1905	233.634173006413	233
3	1909	233.668698174864	234
3	1929	236.779763459472	235
3	1941	237.852057328206	236
3	1949	239.851084117865	237
4	9	0.171523446922	0
4	19	1.337954352974	1
4	27	2.577016138558	2
4	45	5.724965589176	3
4	53	6.930339613382	4
4	75	8.546557067416	5
4	99	12.055405889733	6
4	107	13.049532184233	7
4	117	14.066874311062	8
4	131	15.150713485556	9
4	139	17.054431749866	10
4	173	21.703233794298	11
4	181	21.773859796386	12
4	197	25.400495066325	13
4	205	27.22619157877	14
4	227	29.560515896236	15
4	235	30.988129425963	16
4	255	34.268153215627	17
4	259	34.318164333277	18
4	267	34.392591961518	19
4	277	36.249254831472	20
4	285	37.923380009219	21
4	293	39.784071616253	22
4	305	41.380898162493	23
4	317	42.484402377062	24
4	321	42.507642919881	25
4	329	43.656100093109	26
4	339	44.711477801917	27
4	343	44.762668043099	28
4	361	46.077651543794	29
4	395	50.984272535771	30
4	409	52.567153785542	31
4	421	53.838791777343	32
4	463	57.927766969537	33
4	485	60.964638202008	34
4	497	62.938040643372	35
4	511	64.412388209526	36
4	521	65.591759220128	37
4	537	69.107031523308	38
4	547	70.245004741933	39
4	555	70.401645678223	40
4	571	72.696765136927	41
4	579	72.752302076868	42
4	601	73.883160717689	43
4	619	76.854263453487	44
4	627	77.92490135879	45
4	635	79.351815994363	46
4	661	81.316947200119	47
4	699	84.822372549138	48
4	703	84.878160344555	49
4	713	86.220928008224	50
4	737	89.759735221985	51
4	747	90.919698043955	52
4	755	92.259587418568	53
4	779	94.708993925227	54
4	789	96.136604848323	55
4	797	97.796458770248	56
4	853	106.801964669831	57
4	857	106.829473739593	58
4	869	108.331974350298	59
4	915	112.309481607565	60
4	933	114.814391382773	61
4	953	116.223454276698	62
4	993	121.563761249731	63
4	1009	124.488195099754	64
4	1029	127.765270316332	65
4	1049	130.281469695377	66
4	1081	134.8067492708	67
4	1093	136.032148151434	68
4	1097	136.061399699333	69
4	1101	136.104930048225	70
4	1125	139.25648650054	71
4	1133	140.998766904229	72
4	1143	142.797408039166	73
4	1151	143.882413238382	74
4	1159	145.536952292338	75
4	1169	146.711172019399	76
4	1177	148.634519797013	77
4	1181	148.678046764695	78
4	1195	149.911674955196	79
4	1215	152.394287692045	80
4	1219	152.437886250961	81
4	1227	153.852762990811	82
4	1249	156.850755603776	83
4	1267	158.350047761767	84
4	1299	165.101971479112	85
4	1303	165.166692566569	86
4	1321	167.416543535782	87
4	1335	168.539961212407	88
4	1355	171.636427362153	89
4	1381	175.68439628685	90
4	1397	179.004809494335	91
4	1401	179.030934175881	92
4	1421	182.857197995056	93
4	1443	186.029818049415	94
4	1451	187.567401728011	95
4	1459	188.803487843262	96
4	1471	188.871859678752	97
4	1479	190.56717473241	98
4	1497	192.476711299886	99
4	1505	192.551718999961	100
4	1517	193.761103603931	101
4	1535	195.709676724351	102
4	1543	195.810485088982	103
4	1547	195.885423468125	104
4	1569	197.933364040343	105
4	1581	199.887412934924	106
4	1591	201.534631531292	107
4	1605	203.146173111022	108
4	1609	203.221699455952	109
4	1621	204.72075079582	110
4	1629	204.817988023885	111
4	1639	206.070492823819	112
4	1643	206.112359702293	113
4	1651	206.171662351901	114
4	1671	207.887853381631	115
4	1689	208.89519066094	116
4	1693	208.917875991222	117
4	1707	210.170908750335	118
4	1761	216.357996769461	119
4	1769	218.234877373572	120
4	1781	220.246120436679	121
4	1789	221.445900908228	122
4	1793	221.492453547652	123
4	1821	226.287117704488	124
4	1885	231.824879027493	125
4	1899	233.568035856649	126
4	1903	233.597440985778	127
4	1911	233.705912300837	128
4	1919	235.33320488693	129
4	1931	236.80181577929	130
4	1939	237.840801058813	131
4	1951	239.883293829183	132
5	11	0.182801218651	0
5	21	1.363341125902	1
5	31	2.602416663014	2
5	39	4.139943071024	3
5	47	5.744459662345	4
5	65	7.090405576724	5
5	77	8.557252115673	6
5	89	10.093782407168	7
5	101	12.083244808729	8
5	109	13.064026783771	9
5	119	14.082180283069	10
5	133	15.169690539773	11
5	141	17.084750967329	12
5	151	18.239346013982	13
5	165	19.900477495625	14
5	183	21.804239615997	15
5	191	23.405001509547	16
5	199	25.413867561235	17
5	209	27.251680505368	18
5	219	28.484705824012	19
5	229	29.577152824079	20
5	239	31.014212146945	21
5	249	32.530842189697	22
5	269	34.417277291588	23
5	279	36.263502811612	24
5	287	37.96170184727	25
5	297	39.828209409717	26
5	307	41.411010777219	27
5	323	42.522535197752	28
5	333	43.689633600399	29
5	345	44.780354155513	30
5	363	46.109152045713	31
5	375	47.766211173101	32
5	385	49.282658239804	33
5	403	51.070811269065	34
5	411	52.581794337864	35
5	423	53.872428151143	36
5	435	55.188756846578	37
5	445	56.528884958998	38
5	465	57.95056439157	39
5	479	59.687066301202	40
5	487	60.985983338172	41
5	505	63.007476608547	42
5	515	64.451529937409	43
5	523	65.605319132885	44
5	531	67.332525335588	45
5	541	69.129884414581	46
5	557	70.425436285219	47
5	565	71.526723639938	48
5	581	72.839814100821	49
5	603	73.901075242447	50
5	613	75.553776988121	51
5	621	76.871759750985	52
5	629	77.934934768968	53
5	655	79.605911591585	54
5	663	81.330764206238	55
5	673	82.384737337582	56
5	687	83.543660069168	57
5	705	84.891232930515	58
5	715	86.231068022089	59
5	725	87.904099418911	60
5	739	89.769969017412	61
5	749	90.935287798157	62
5	757	92.273244910244	63
5	773	93.548372950204	64
5	783	94.745636750551	65
5	791	96.191912559528	66
5	799	97.813612311041	67
5	807	99.423513320482	68
5	823	101.49949999874	69
5	833	103.335567481756	70
5	843	105.22602813096	71
5	861	106.858268756791	72
5	873	108.369717818123	73
5	883	109.748491048571	74
5	899	111.099205256425	75
5	919	112.354261068768	76
5	927	113.74442269562	77
5	935	114.825143995687	78
5	957	116.256100742472	79
5	965	117.877016913392	80
5	973	118.918118895342	81
5	985	119.966511510802	82
5	995	121.577704882131	83
5	1003	123.194672699106	84
5	1013	124.517927655572	85
5	1023	126.315038524372	86
5	1033	127.791365745945	87
5	1043	128.995419208063	88
5	1051	130.296232518744	89
5	1061	131.671431323331	90
5	1071	133.347057282544	91
5	1083	134.822083152413	92
5	1105	136.134297552523	93
5	1119	137.649665443757	94
5	1127	139.269820922078	95
5	1137	141.050116134698	96
5	1145	142.814166149038	97
5	1153	143.892571708623	98
5	1163	145.576182999897	99
5	1171	146.734078286152	100
5	1189	148.796144710695	101
5	1199	149.949152241798	102
5	1209	151.421284012164	103
5	1221	152.451542747758	104
5	1235	153.908221611077	105
5	1243	155.520107538089	106
5	1251	156.867139429663	107
5	1269	158.361405368571	108
5	1277	159.83228821292	109
5	1285	161.698338957536	110
5	1293	163.205717983135	111
5	1305	165.189431439949	112
5	1315	166.305183505069	113
5	1325	167.441221377801	114
5	1337	168.552264754001	115
5	1345	170.263565682801	116
5	1357	171.648035992181	117
5	1365	173.250133400123	118
5	1375	174.597986441113	119
5	1383	175.698230767301	120
5	1391	177.060226694689	121
5	1405	179.065019216248	122
5	1415	181.027945787793	123
5	1425	182.90362951682	124
5	1433	184.597014756378	125
5	1445	186.058833105382	126
5	1453	187.578645530946	127
5	1473	188.891068426047	128
5	1481	190.578467682624	129
5	1509	192.616955574381	130
5	1529	193.873017238697	131
5	1549	195.911721377357	132
5	1557	196.766257698715	133
5	1571	197.968702774304	134
5	1585	199.929230403244	135
5	1593	201.567213378534	136
5	1611	203.235851185028	137
5	1633	204.847870003606	138
5	1653	206.184321711321	139
5	1673	207.903177232187	140
5	1697	208.968782922143	141
5	1711	210.224165127997	142
5	1723	212.185220065449	143
5	1735	213.541606420726	144
5	1743	215.136737080254	145
5	1763	216.386727533455	146
5	1771	218.252897954575	147
5	1783	220.26645908008	148
5	1795	221.509593535559	149
5	1803	222.585542669748	150
5	1813	224.560206374301	151
5	1823	226.301725481409	152
5	1835	228.211682495219	153
5	1847	229.317537802965	154
5	1861	230.72898016304	155
5	1893	231.887507146378	156
5	1913	233.74125157036	157
5	1921	235.369201929755	158
5	1933	236.817604653788	159
5	1943	237.862291658374	160
5	1953	239.894080481707	161
6	12	0.192801218651	0
6	22	1.373341125902	1
6	32	2.612416663014	2
6	40	4.149943071024	3
6	48	5.754459662345	4
6	66	7.100405576724	5
6	78	8.567252115673	6
6	90	10.103782407168	7
6	102	12.093244808729	8
6	110	13.074026783771	9
6	120	14.092180283069	10
6	134	15.179690539773	11
6	142	17.094750967329	12
6	152	18.249346013982	13
6	166	19.910477495625	14
6	184	21.814239615997	15
6	192	23.415001509547	16
6	200	25.423867561235	17
6	210	27.261680505368	18
6	220	28.494705824012	19
6	230	29.587152824079	20
6	240	31.024212146945	21
6	250	32.540842189697	22
6	270	34.427277291588	23
6	280	36.273502811612	24
6	288	37.97170184727	25
6	298	39.838209409717	26
6	308	41.421010777219	27
6	324	42.532535197752	28
6	334	43.699633600399	29
6	346	44.790354155513	30
6	364	46.119152045713	31
6	376	47.776211173101	32
6	386	49.292658239804	33
6	404	51.080811269065	34
6	412	52.591794337864	35
6	424	53.882428151143	36
6	436	55.198756846578	37
6	446	56.538884958998	38
6	466	57.96056439157	39
6	480	59.697066301202	40
6	488	60.995983338172	41
6	506	63.017476608547	42
6	516	64.461529937409	43
6	524	65.615319132885	44
6	532	67.342525335588	45
6	542	69.139884414581	46
6	558	70.435436285219	47
6	566	71.536723639938	48
6	582	72.849814100821	49
6	604	73.911075242447	50
6	614	75.563776988121	51
6	622	76.881759750985	52
6	630	77.944934768968	53
6	656	79.615911591585	54
6	664	81.340764206238	55
6	674	82.394737337582	56
6	688	83.553660069168	57
6	706	84.901232930515	58
6	716	86.241068022089	59
6	726	87.914099418911	60
6	740	89.779969017412	61
6	750	90.945287798157	62
6	758	92.283244910244	63
6	774	93.558372950204	64
6	784	94.755636750551	65
6	792	96.201912559528	66
6	800	97.823612311041	67
6	808	99.433513320482	68
6	824	101.50949999874	69
6	834	103.345567481756	70
6	844	105.23602813096	71
6	862	106.868268756791	72
6	874	108.379717818123	73
6	884	109.758491048571	74
6	900	111.109205256425	75
6	920	112.364261068768	76
6	928	113.75442269562	77
6	936	114.835143995687	78
6	958	116.266100742472	79
6	966	117.887016913392	80
6	974	118.928118895342	81
6	986	119.976511510802	82
6	996	121.587704882131	83
6	1004	123.204672699106	84
6	1014	124.527927655572	85
6	1024	126.325038524372	86
6	1034	127.801365745945	87
6	1044	129.005419208063	88
6	1052	130.306232518744	89
6	1062	131.681431323331	90
6	1072	133.357057282544	91
6	1084	134.832083152413	92
6	1106	136.144297552523	93
6	1120	137.659665443757	94
6	1128	139.279820922078	95
6	1138	141.060116134698	96
6	1146	142.824166149038	97
6	1154	143.902571708623	98
6	1164	145.586182999897	99
6	1172	146.744078286152	100
6	1190	148.806144710695	101
6	1200	149.959152241798	102
6	1210	151.431284012164	103
6	1222	152.461542747758	104
6	1236	153.918221611077	105
6	1244	155.530107538089	106
6	1252	156.877139429663	107
6	1270	158.371405368571	108
6	1278	159.84228821292	109
6	1286	161.708338957536	110
6	1294	163.215717983135	111
6	1306	165.199431439949	112
6	1316	166.315183505069	113
6	1326	167.451221377801	114
6	1338	168.562264754001	115
6	1346	170.273565682801	116
6	1358	171.658035992181	117
6	1366	173.260133400123	118
6	1376	174.607986441113	119
6	1384	175.708230767301	120
6	1392	177.070226694689	121
6	1406	179.075019216248	122
6	1416	181.037945787793	123
6	1426	182.91362951682	124
6	1434	184.607014756378	125
6	1446	186.068833105382	126
6	1454	187.588645530946	127
6	1474	188.901068426047	128
6	1482	190.588467682624	129
6	1510	192.626955574381	130
6	1530	193.883017238697	131
6	1550	195.921721377357	132
6	1558	196.776257698715	133
6	1572	197.978702774304	134
6	1586	199.939230403244	135
6	1594	201.577213378534	136
6	1612	203.245851185028	137
6	1634	204.857870003606	138
6	1654	206.194321711321	139
6	1674	207.913177232187	140
6	1698	208.978782922143	141
6	1712	210.234165127997	142
6	1724	212.195220065449	143
6	1736	213.551606420726	144
6	1744	215.146737080254	145
6	1764	216.396727533455	146
6	1772	218.262897954575	147
6	1784	220.27645908008	148
6	1796	221.519593535559	149
6	1804	222.595542669748	150
6	1814	224.570206374301	151
6	1824	226.311725481409	152
6	1836	228.221682495219	153
6	1848	229.327537802965	154
6	1862	230.73898016304	155
6	1894	231.897507146378	156
6	1914	233.75125157036	157
6	1922	235.379201929755	158
6	1934	236.827604653788	159
6	1944	237.872291658374	160
6	1954	239.904080481707	161

