version 2
run General-0-20230921-23:15:45-8726
attr configname General
attr datetime 20230921-23:15:45
attr experiment General
attr inifile omnetpp.ini
attr iterationvars ""
attr iterationvarsf ""
attr measurement ""
attr network Network2
attr processid 8726
attr repetition 0
attr replication #0
attr resultdir results
attr runnumber 0
attr seedset 0
param Network2.node[*].transmissionTime "uniform(1s, 2s)"
param Network2.node[*].delayTime "uniform(0.01s, 0.2s)"
param Network2.node[*].processingTime exponential(0.01s)
param Network2.node[*].lossProbability 0.0

vector 0 Network2.node[0] txVector ETV
vector 1 Network2.node[1] txVector ETV
vector 2 Network2.node[3] txVector ETV
vector 3 Network2.node[2] txVector ETV
vector 4 Network2.node[4] txVector ETV
vector 5 Network2.node[5] rxVector ETV
vector 6 Network2.node[6] txVector ETV
0	1	0.114274565438	0
0	19	1.707119181827	1
0	27	3.355291058384	2
0	43	5.156201810883	3
0	53	6.480342815006	4
0	67	8.382691393215	5
0	81	10.01696544637	6
0	89	11.691717768628	7
0	97	12.78881903978	8
0	109	13.8445337327	9
0	121	15.258796721072	10
0	137	16.268153422819	11
0	153	17.55662985526	12
0	161	18.968449997091	13
0	169	20.693704278515	14
0	177	22.168571800067	15
0	189	23.597340498659	16
0	203	24.738604401545	17
0	211	25.9010973329	18
0	219	27.041069916058	19
0	227	28.907452242057	20
0	241	30.657451489781	21
0	257	32.254106902591	22
0	265	33.463950656661	23
0	281	35.144495350848	24
0	319	36.751540411803	25
0	329	38.338324757134	26
0	351	40.178753292495	27
0	365	42.108282610615	28
0	383	44.069852768284	29
0	407	46.051682155187	30
0	417	47.826901937443	31
0	425	49.077524657202	32
0	437	50.804568921057	33
0	445	52.65720384459	34
0	461	54.435899241436	35
0	469	55.742709341766	36
0	477	57.299138768185	37
0	495	58.691814449458	38
0	509	60.408058621297	39
0	523	61.50552730782	40
0	533	62.764211373479	41
0	553	63.949443698005	42
0	561	65.20263488901	43
0	571	67.19297989512	44
0	585	68.994816045353	45
0	595	70.441959884327	46
0	607	71.699193367811	47
0	619	73.057300842909	48
0	631	74.852835589863	49
0	659	76.793045283371	50
0	679	78.06605418686	51
0	689	79.41453017628	52
0	707	80.96289151286	53
0	721	82.869063353708	54
0	729	84.841145858711	55
0	757	86.3509530505	56
0	783	88.319239465131	57
0	793	89.793907449658	58
0	801	90.797006992933	59
0	825	92.477355664207	60
0	833	93.829248662649	61
0	843	95.593810639654	62
0	853	97.115806909355	63
0	861	98.168315071457	64
0	873	99.357377727593	65
0	881	100.628491121188	66
0	891	101.745806687821	67
0	905	103.38499358956	68
0	917	105.160796806759	69
0	927	107.050084123698	70
0	935	108.069207021345	71
0	949	109.606486050256	72
0	971	111.503763127217	73
0	989	112.880152280752	74
0	1001	114.05025192125	75
0	1033	115.571013355006	76
0	1047	117.349184949261	77
0	1055	118.756106883597	78
0	1065	120.73199075375	79
0	1075	122.371695854778	80
0	1091	124.269238615253	81
0	1105	125.269784586116	82
0	1115	126.907246865875	83
0	1129	128.36393445994	84
0	1147	130.336846204319	85
0	1163	131.937059069828	86
0	1195	133.370136521601	87
0	1203	135.180975134329	88
0	1211	136.301095310676	89
0	1241	137.388478005382	90
0	1253	138.639941794176	91
0	1261	140.03517503462	92
0	1271	141.252837875934	93
0	1285	142.775013743044	94
0	1293	144.504841384786	95
0	1313	145.871887626667	96
0	1321	146.903943248168	97
0	1329	148.41886545376	98
0	1339	149.78510977638	99
0	1351	151.73878547743	100
0	1385	153.327424476464	101
0	1397	154.351697184686	102
0	1407	156.028741717879	103
0	1427	157.25801781293	104
0	1435	159.018067010054	105
0	1443	160.261690530767	106
0	1453	161.513317286344	107
0	1475	163.039268232025	108
0	1487	164.414618663098	109
0	1495	166.083195817498	110
0	1517	167.358621081179	111
0	1525	168.755646918276	112
0	1535	170.119128679232	113
0	1543	171.124443719237	114
0	1559	172.228022184296	115
0	1567	173.617570688555	116
0	1581	175.414824616004	117
0	1595	176.691161768584	118
0	1607	178.551472445092	119
0	1625	180.452480356515	120
0	1643	182.437840200568	121
0	1653	183.794280091606	122
0	1665	185.363567011503	123
0	1673	186.482483953543	124
0	1685	187.67654204143	125
0	1697	189.579520894753	126
0	1715	191.131961247258	127
0	1723	192.977115332455	128
0	1735	194.800687273106	129
0	1745	195.898497432078	130
0	1755	197.119321712366	131
0	1763	198.195171804939	132
0	1771	199.747817681011	133
0	1781	201.14826621332	134
0	1793	202.344640360752	135
0	1807	203.359421289831	136
0	1819	205.06740364393	137
0	1827	206.727374193331	138
0	1839	208.593665774286	139
0	1847	210.124860893542	140
0	1855	211.443239833068	141
0	1867	213.063365712136	142
0	1877	215.05373422995	143
0	1897	216.727387500068	144
0	1905	218.131809816535	145
0	1925	219.540583641573	146
0	1933	220.762364693058	147
0	1943	221.806832533169	148
0	1955	223.093558379987	149
0	1975	224.765086077692	150
0	1983	226.483205117591	151
0	1993	227.857619105678	152
0	2007	229.051242396774	153
0	2017	230.602236361316	154
0	2025	231.798936207619	155
0	2041	233.569932896484	156
0	2051	234.643759174345	157
0	2059	236.142193960331	158
0	2069	237.629993228314	159
0	2077	239.47507923546	160
1	3	0.142870607559	0
1	21	1.7217116632	1
1	29	3.372640702596	2
1	45	5.167823175777	3
1	55	6.491388427264	4
1	69	8.424620859636	5
1	83	10.030781004804	6
1	91	11.719915957821	7
1	99	12.804818508646	8
1	111	13.855196706715	9
1	123	15.287269997582	10
1	139	16.283832464354	11
1	155	17.577882675428	12
1	163	18.9854079917	13
1	171	20.710055555671	14
1	179	22.180027539851	15
1	191	23.608363704808	16
1	205	24.758164065784	17
1	213	25.911435200756	18
1	221	27.088169521977	19
1	229	28.921598367484	20
1	243	30.682759802044	21
1	259	32.266167223076	22
1	267	33.474842199561	23
1	283	35.167037383549	24
1	321	36.781480803816	25
1	331	38.350617200386	26
1	353	40.199837390037	27
1	367	42.120918381743	28
1	385	44.086360741708	29
1	409	46.08774787321	30
1	419	47.848215725119	31
1	427	49.090676257489	32
1	439	50.820250625894	33
1	447	52.682227972527	34
1	463	54.454515916354	35
1	471	55.75445129337	36
1	479	57.34046706308	37
1	497	58.702088870462	38
1	511	60.427778730208	39
1	525	61.534434599364	40
1	535	62.779340643397	41
1	555	63.960848455175	42
1	563	65.217895196968	43
1	573	67.203710411692	44
1	587	69.039522496158	45
1	597	70.45676866657	46
1	609	71.714058559209	47
1	621	73.074311298002	48
1	633	74.876729174932	49
1	661	76.838135918881	50
1	681	78.089528675097	51
1	691	79.427714106441	52
1	709	80.972976993046	53
1	723	82.897010084848	54
1	731	84.855209987378	55
1	759	86.386183225114	56
1	785	88.331277318953	57
1	795	89.813003156707	58
1	803	90.807659928889	59
1	827	92.500135685499	60
1	835	93.851230176527	61
1	845	95.618642373734	62
1	855	97.134875540428	63
1	863	98.201217643656	64
1	875	99.373786881825	65
1	883	100.6416553951	66
1	893	101.760900972923	67
1	907	103.398294656501	68
1	919	105.18225758711	69
1	929	107.067385343901	70
1	937	108.082416997924	71
1	951	109.620523579327	72
1	973	111.518303041684	73
1	991	112.901747440412	74
1	1003	114.063360841881	75
1	1035	115.59960742073	76
1	1049	117.380201885102	77
1	1057	118.793072232136	78
1	1067	120.747238358191	79
1	1077	122.396391187937	80
1	1093	124.284779456701	81
1	1107	125.296494451868	82
1	1117	126.93466500609	83
1	1131	128.394515371717	84
1	1149	130.379868043844	85
1	1165	131.951480571547	86
1	1197	133.384416573106	87
1	1205	135.195046906134	88
1	1213	136.31598020354	89
1	1243	137.425404004059	90
1	1255	138.653664612007	91
1	1263	140.0816021315	92
1	1273	141.282052415294	93
1	1287	142.785730665225	94
1	1295	144.530436897603	95
1	1315	145.882516971486	96
1	1323	146.941816134495	97
1	1331	148.455578700464	98
1	1341	149.803840166897	99
1	1353	151.762778873054	100
1	1387	153.343047700714	101
1	1399	154.367719267627	102
1	1409	156.050306725541	103
1	1429	157.276294831148	104
1	1437	159.089808980784	105
1	1445	160.273408904315	106
1	1455	161.535500414106	107
1	1477	163.059516264474	108
1	1489	164.427432720442	109
1	1497	166.097792247778	110
1	1519	167.371859698253	111
1	1527	168.767383237014	112
1	1537	170.129751001404	113
1	1545	171.134626340232	114
1	1561	172.241084279969	115
1	1569	173.651050672581	116
1	1583	175.429437410633	117
1	1597	176.711746066668	118
1	1609	178.561566639158	119
1	1627	180.465499359993	120
1	1645	182.457829278267	121
1	1655	183.811456144504	122
1	1667	185.378971945423	123
1	1675	186.541941830485	124
1	1687	187.712064550132	125
1	1699	189.59210692745	126
1	1717	191.146786289103	127
1	1725	193.012505953557	128
1	1737	194.832260037793	129
1	1747	195.910164857623	130
1	1757	197.170692336482	131
1	1765	198.208064639989	132
1	1773	199.768779974234	133
1	1783	201.158540729297	134
1	1795	202.370872365517	135
1	1809	203.383997477814	136
1	1821	205.086084314813	137
1	1829	206.763614473018	138
1	1841	208.610026778727	139
1	1849	210.136701830289	140
1	1857	211.462850027868	141
1	1869	213.097687064885	142
1	1879	215.074068746397	143
1	1899	216.738060854831	144
1	1907	218.145321400821	145
1	1927	219.563677067594	146
1	1935	220.779545447468	147
1	1945	221.819022134853	148
1	1957	223.122071774143	149
1	1977	224.781304581592	150
1	1985	226.497571874337	151
1	1995	227.868809756592	152
1	2009	229.100598620932	153
1	2019	230.615621085638	154
1	2027	231.809891634431	155
1	2043	233.586685308635	156
1	2053	234.665858605771	157
1	2061	236.16695202609	158
1	2071	237.646088115531	159
1	2079	239.51746147284	160
2	5	0.163252200566	0
2	9	0.219932914756	1
2	13	0.253954119372	2
2	23	1.733223971737	3
2	39	3.458108534898	4
2	57	6.51237755194	5
2	61	6.535632099484	6
2	77	8.529923493675	7
2	85	10.042969810769	8
2	101	12.815218271637	9
2	105	12.877645733759	10
2	117	13.926073206487	11
2	165	18.998028564117	12
2	173	20.730848757658	13
2	185	22.257663972138	14
2	207	24.78326230034	15
2	215	25.933389586419	16
2	223	27.100792815069	17
2	261	32.28459701083	18
2	277	33.566935514327	19
2	285	35.179482293769	20
2	289	35.223380147663	21
2	301	35.352049880418	22
2	309	35.456752517759	23
2	313	35.484803150227	24
2	325	36.810688656651	25
2	341	38.481138480516	26
2	345	38.512267189796	27
2	355	40.251397100993	28
2	387	44.106562612588	29
2	395	44.21371709777	30
2	403	44.305901303361	31
2	413	46.12830358864	32
2	441	50.845788080914	33
2	457	52.75981390365	34
2	473	55.775889247161	35
2	487	57.429954785786	36
2	491	57.460603399787	37
2	505	58.783914456175	38
2	515	60.46639646603	39
2	519	60.492470875836	40
2	529	61.562492420758	41
2	539	62.839802628203	42
2	547	62.901870103166	43
2	557	63.972075605248	44
2	579	67.260139799111	45
2	589	69.075420757613	46
2	603	70.514183521842	47
2	667	76.905847424059	48
2	675	76.986485781338	49
2	697	79.471196001547	50
2	701	79.516969098559	51
2	715	81.018774475661	52
2	725	82.907180241085	53
2	739	84.932026851111	54
2	767	86.443179619189	55
2	775	86.518432201342	56
2	779	86.571432527347	57
2	813	90.902384813631	58
2	821	90.973715308251	59
2	829	92.526905032829	60
2	837	93.862086384468	61
2	913	103.438594149976	62
2	931	107.090133858426	63
2	939	108.092669609142	64
2	959	109.711198992197	65
2	963	109.740495173788	66
2	967	109.785750444727	67
2	979	111.562192219828	68
2	993	112.924463540435	69
2	997	112.952016668438	70
2	1019	114.263090964662	71
2	1041	115.697976362642	72
2	1087	122.479546316089	73
2	1109	125.33112939816	74
2	1155	130.445917137421	75
2	1159	130.482207190609	76
2	1175	132.068345844683	77
2	1187	132.190790300644	78
2	1191	132.226699896256	79
2	1219	136.366531234468	80
2	1227	136.442511669706	81
2	1231	136.480142139713	82
2	1249	137.469185186211	83
2	1267	140.125801616731	84
2	1275	141.29889660471	85
2	1297	144.548092102341	86
2	1309	144.690284956556	87
2	1317	145.899586653127	88
2	1325	146.960682655841	89
2	1335	148.483369805306	90
2	1355	151.786408606371	91
2	1389	153.357281004775	92
2	1393	153.412224939662	93
2	1419	156.152013401011	94
2	1423	156.194922318537	95
2	1431	157.288437240366	96
2	1439	159.12133163611	97
2	1467	161.68399789373	98
2	1471	161.717028800416	99
2	1483	163.133109998524	100
2	1491	164.438211202498	101
2	1499	166.110010084271	102
2	1539	170.141446767805	103
2	1555	171.208936168135	104
2	1571	173.663269502762	105
2	1603	176.775229998027	106
2	1613	178.592060967574	107
2	1621	178.674995028537	108
2	1657	183.824073761601	109
2	1661	183.86461722588	110
2	1669	185.4022801668	111
2	1693	187.768198660226	112
2	1731	193.058667100348	113
2	1741	194.863001308672	114
2	1759	197.182992748395	115
2	1775	199.7933985474	116
2	1815	203.465741588273	117
2	1823	205.10219353021	118
2	1851	210.150529506386	119
2	1861	211.488658245751	120
2	1901	216.77692115576	121
2	1913	218.190453548209	122
2	1921	218.254753913613	123
2	1929	219.581736089336	124
2	1951	221.882048847516	125
2	1967	223.191011324072	126
2	1971	223.2257202271	127
2	2021	230.626942645479	128
2	2031	231.867310921108	129
2	2055	234.679706699956	130
2	2065	236.192840908071	131
2	2073	237.674454067309	132
2	2081	239.532236372091	133
3	7	0.176783791957	0
3	11	0.236427378239	1
3	15	0.268942839462	2
3	33	3.410563367924	3
3	37	3.434755633052	4
3	49	5.220707789293	5
3	59	6.5242518126	6
3	63	6.554992715082	7
3	71	8.436963874824	8
3	75	8.513485683659	9
3	93	11.765651841544	10
3	103	12.864133972865	11
3	115	13.890670161407	12
3	125	15.315682822297	13
3	129	15.345754300681	14
3	133	15.384995126467	15
3	141	16.302416394032	16
3	145	16.353123671133	17
3	149	16.41747997724	18
3	157	17.596588033691	19
3	183	22.212938617345	20
3	195	23.658313619975	21
3	199	23.709841067453	22
3	233	28.944135363088	23
3	237	29.000679800913	24
3	245	30.702474623625	25
3	249	30.728300982378	26
3	253	30.781370555767	27
3	271	33.513451917835	28
3	275	33.543316197084	29
3	287	35.213171475477	30
3	291	35.254715780538	31
3	295	35.290924476555	32
3	299	35.330659303911	33
3	303	35.373681013252	34
3	307	35.444353282565	35
3	311	35.473134403815	36
3	315	35.499489914987	37
3	323	36.798766042243	38
3	335	38.400156966103	39
3	339	38.457305315854	40
3	343	38.499920631303	41
3	347	38.525022469166	42
3	357	40.270225906443	43
3	361	40.335348609075	44
3	371	42.163750989395	45
3	375	42.199547327063	46
3	379	42.221841541677	47
3	389	44.121847284871	48
3	393	44.164240765094	49
3	397	44.243536001181	50
3	401	44.291449809967	51
3	411	46.110679351798	52
3	421	47.863874670535	53
3	429	49.109639549539	54
3	433	49.139363553619	55
3	451	52.706138002107	56
3	455	52.733729725159	57
3	465	54.466428876813	58
3	481	57.351852931294	59
3	485	57.403841465795	60
3	489	57.445046810655	61
3	499	58.714833505682	62
3	503	58.766914199814	63
3	513	60.439494116482	64
3	517	60.477388681295	65
3	527	61.548101650902	66
3	537	62.800743432166	67
3	541	62.850768040993	68
3	545	62.891712811928	69
3	549	62.922363524825	70
3	567	65.262443978159	71
3	577	67.244621777895	72
3	581	67.275723067004	73
3	591	69.098840955025	74
3	601	70.501592399283	75
3	611	71.73717819002	76
3	615	71.765046692388	77
3	623	73.10258656068	78
3	627	73.164569831404	79
3	635	74.88834060072	80
3	639	74.921382853004	81
3	643	74.954945597661	82
3	647	75.016465144501	83
3	651	75.10973047933	84
3	655	75.141128463845	85
3	665	76.873322495358	86
3	669	76.929734196798	87
3	673	76.973560275326	88
3	685	78.141603859523	89
3	695	79.461116848082	90
3	699	79.481444333624	91
3	703	79.53395490862	92
3	713	80.997628365631	93
3	717	81.033698889425	94
3	733	84.890408874316	95
3	737	84.921074006282	96
3	741	84.959561332294	97
3	745	85.010535797092	98
3	749	85.056258600412	99
3	753	85.088823928209	100
3	761	86.398104180875	101
3	765	86.42450206776	102
3	769	86.459092647045	103
3	773	86.498609819498	104
3	777	86.540354723763	105
3	789	88.386671215285	106
3	797	89.861889603935	107
3	807	90.834700471518	108
3	811	90.888267807852	109
3	815	90.921368837295	110
3	819	90.952951403657	111
3	839	93.872733220519	112
3	849	95.645452983989	113
3	857	97.149980492055	114
3	865	98.212240828452	115
3	869	98.241957115262	116
3	877	99.389894423574	117
3	887	100.675466264149	118
3	897	101.800251681291	119
3	901	101.834764976122	120
3	911	103.427703290401	121
3	923	105.20744890458	122
3	941	108.103353997896	123
3	945	108.143319454304	124
3	953	109.636197260524	125
3	957	109.674996976428	126
3	961	109.725510010469	127
3	965	109.761509134571	128
3	977	111.551166427229	129
3	981	111.573440828406	130
3	985	111.631406941989	131
3	995	112.938444150485	132
3	1005	114.078911159134	133
3	1009	114.110318822548	134
3	1013	114.147470622382	135
3	1017	114.230520093246	136
3	1021	114.288787348208	137
3	1025	114.313854199006	138
3	1029	114.351063925406	139
3	1039	115.674997996951	140
3	1043	115.70967693353	141
3	1051	117.393032903392	142
3	1061	118.842764314712	143
3	1071	120.791796698658	144
3	1081	122.430829222879	145
3	1085	122.455872258899	146
3	1097	124.308038468949	147
3	1101	124.34846616691	148
3	1111	125.34840962699	149
3	1121	126.980553285659	150
3	1125	127.019247873661	151
3	1135	128.438433953499	152
3	1139	128.478579717601	153
3	1143	128.533973624335	154
3	1153	130.412994641163	155
3	1157	130.468257937688	156
3	1169	132.022729159531	157
3	1173	132.054121810189	158
3	1177	132.11151651846	159
3	1181	132.137550378047	160
3	1185	132.171083643166	161
3	1189	132.206818409724	162
3	1199	133.397490245834	163
3	1207	135.206844016726	164
3	1217	136.347997327606	165
3	1221	136.387240784932	166
3	1225	136.414975029533	167
3	1229	136.45530923773	168
3	1233	136.492860374903	169
3	1237	136.526299561775	170
3	1247	137.456605733918	171
3	1257	138.667759005134	172
3	1265	140.113819603525	173
3	1277	141.318648895134	174
3	1281	141.349304594517	175
3	1289	142.799795590901	176
3	1299	144.575743720137	177
3	1303	144.624552438331	178
3	1307	144.674578728976	179
3	1333	148.466028417143	180
3	1343	149.834109036468	181
3	1347	149.872201796451	182
3	1357	151.806614631218	183
3	1361	151.846914233035	184
3	1365	151.942575160426	185
3	1369	151.967593217393	186
3	1373	152.027078320604	187
3	1377	152.055995918385	188
3	1381	152.091131807585	189
3	1391	153.402085318979	190
3	1403	154.392747657069	191
3	1413	156.078092225737	192
3	1417	156.142006756649	193
3	1421	156.162297210499	194
3	1449	160.295330825355	195
3	1457	161.546754002733	196
3	1461	161.58673541948	197
3	1465	161.639205951751	198
3	1469	161.700392323664	199
3	1481	163.120802480154	200
3	1501	166.121805171231	201
3	1505	166.154944532016	202
3	1509	166.196584302166	203
3	1513	166.247756605749	204
3	1521	167.384351087205	205
3	1531	168.817431865294	206
3	1549	171.164858420548	207
3	1553	171.190065172044	208
3	1563	172.264439731312	209
3	1573	173.692155832326	210
3	1577	173.749867028412	211
3	1587	175.470889008003	212
3	1591	175.494671017421	213
3	1601	176.754810949089	214
3	1611	178.581432717254	215
3	1615	178.603667103654	216
3	1619	178.664988110642	217
3	1631	180.520590208477	218
3	1635	180.556580382286	219
3	1639	180.576989341926	220
3	1649	182.489862838209	221
3	1659	183.849581478385	222
3	1677	186.560465833039	223
3	1681	186.629547380881	224
3	1691	187.748521409845	225
3	1703	189.646085948652	226
3	1707	189.668935810441	227
3	1711	189.697629318918	228
3	1719	191.168651813518	229
3	1729	193.03735031967	230
3	1739	194.842695544206	231
3	1751	195.972141986057	232
3	1767	198.221703746281	233
3	1777	199.810300733098	234
3	1785	201.198355060084	235
3	1789	201.239922282958	236
3	1799	202.413585293996	237
3	1803	202.444559229004	238
3	1813	203.424306092437	239
3	1831	206.780873732914	240
3	1835	206.80447998171	241
3	1843	208.630398497555	242
3	1859	211.474547220167	243
3	1863	211.503208040766	244
3	1873	213.142134543453	245
3	1881	215.087074396518	246
3	1885	215.129128494532	247
3	1889	215.151180251776	248
3	1893	215.173385171199	249
3	1911	218.177624581829	250
3	1915	218.212559414183	251
3	1919	218.242293271044	252
3	1939	220.83873088028	253
3	1949	221.860720071583	254
3	1961	223.152540808517	255
3	1965	223.179353819714	256
3	1969	223.213490302908	257
3	1979	224.824602773307	258
3	1989	226.565743366901	259
3	1999	227.918973487042	260
3	2003	227.970468749207	261
3	2013	229.155229398948	262
3	2029	231.833424219822	263
3	2033	231.892122586958	264
3	2037	231.922901315334	265
3	2047	233.647717943679	266
3	2063	236.181239340839	267
4	17	0.279679693017	0
4	25	1.781676190428	1
4	41	3.476511881954	2
4	51	5.235162974244	3
4	65	6.573436993017	4
4	79	8.541654768236	5
4	87	10.063832504578	6
4	95	11.781975207508	7
4	107	12.899314469024	8
4	119	13.962565765774	9
4	135	15.398142343076	10
4	151	16.431010178573	11
4	159	17.640231738222	12
4	167	19.013542524018	13
4	175	20.745685114524	14
4	187	22.273310077149	15
4	201	23.743342840351	16
4	209	24.809729491353	17
4	217	25.9488381577	18
4	225	27.115255343274	19
4	239	29.037001989538	20
4	255	30.799450356301	21
4	263	32.301339456526	22
4	279	33.58298132651	23
4	317	35.511909111435	24
4	327	36.825731455984	25
4	349	38.535673597814	26
4	363	40.354674727628	27
4	381	42.251669030723	28
4	405	44.316747098279	29
4	415	46.139892920437	30
4	423	47.891570868767	31
4	435	49.160860967496	32
4	443	50.866577349999	33
4	459	52.776153224915	34
4	467	54.47678890511	35
4	475	55.793637670956	36
4	493	57.482630537625	37
4	507	58.813414225293	38
4	521	60.530076920393	39
4	531	61.577464513621	40
4	551	62.932693564676	41
4	559	63.98488136451	42
4	569	65.273119319728	43
4	583	67.297984389126	44
4	593	69.113126031067	45
4	605	70.554333204564	46
4	617	71.788861283186	47
4	629	73.182522053417	48
4	657	75.159159831564	49
4	677	77.018489074542	50
4	687	78.155784776112	51
4	705	79.544201045061	52
4	719	81.054117334073	53
4	727	82.92299032764	54
4	755	85.110240083444	55
4	781	86.582050688833	56
4	791	88.400301686829	57
4	799	89.8827920598	58
4	823	90.984098196229	59
4	831	92.545207639297	60
4	841	93.884209539351	61
4	851	95.669133524203	62
4	859	97.161579934189	63
4	871	98.271588348158	64
4	879	99.400947567766	65
4	889	100.704898269712	66
4	903	101.845935676515	67
4	915	103.45866687686	68
4	925	105.265824779071	69
4	933	107.10265525519	70
4	947	108.168167595044	71
4	969	109.801836638268	72
4	987	111.643374148875	73
4	999	112.967382889268	74
4	1031	114.363220923819	75
4	1045	115.720460431541	76
4	1053	117.430413136345	77
4	1063	118.853014960588	78
4	1073	120.807877014916	79
4	1089	122.500880198692	80
4	1103	124.369352328641	81
4	1113	125.370964133705	82
4	1127	127.036497108024	83
4	1145	128.555807019569	84
4	1161	130.494489656841	85
4	1193	132.24043209354	86
4	1201	133.409658146091	87
4	1209	135.217429605209	88
4	1239	136.542754359485	89
4	1251	137.481964316679	90
4	1259	138.693582411637	91
4	1269	140.138124670372	92
4	1283	141.392854238311	93
4	1291	142.837790818586	94
4	1311	144.715035139702	95
4	1319	145.912205649033	96
4	1327	146.979669135388	97
4	1337	148.496171920087	98
4	1349	149.944476118131	99
4	1383	152.105078805577	100
4	1395	153.428836636503	101
4	1405	154.41091327038	102
4	1425	156.206075346776	103
4	1433	157.313331634067	104
4	1441	159.143399926323	105
4	1451	160.306387228111	106
4	1473	161.732538120162	107
4	1485	163.151152603502	108
4	1493	164.49234775354	109
4	1515	166.261715259974	110
4	1523	167.406606817224	111
4	1533	168.844965252335	112
4	1541	170.160499871223	113
4	1557	171.231108963229	114
4	1565	172.287178887488	115
4	1579	173.771096574481	116
4	1593	175.508870524534	117
4	1605	176.785650515064	118
4	1623	178.686257641842	119
4	1641	180.592125774285	120
4	1651	182.503985331949	121
4	1663	183.888468234444	122
4	1671	185.43709014956	123
4	1683	186.661413269492	124
4	1695	187.781774716311	125
4	1713	189.712640726801	126
4	1721	191.189455692299	127
4	1733	193.075801011531	128
4	1743	194.874833758319	129
4	1753	195.991681130291	130
4	1761	197.225386729591	131
4	1769	198.233476498157	132
4	1779	199.823465748353	133
4	1791	201.255262888084	134
4	1805	202.455809098655	135
4	1817	203.491701518496	136
4	1825	205.112567345002	137
4	1837	206.835140846997	138
4	1845	208.648214794831	139
4	1853	210.183721777987	140
4	1865	211.513433887653	141
4	1875	213.153444117022	142
4	1895	215.186329737963	143
4	1903	216.788562660158	144
4	1923	218.265851929179	145
4	1931	219.598342095436	146
4	1941	220.876482896635	147
4	1953	221.927252135674	148
4	1973	223.23916471016	149
4	1981	224.841192700238	150
4	1991	226.580629743913	151
4	2005	227.98080528612	152
4	2015	229.174424286745	153
4	2023	230.675704492337	154
4	2039	231.959619997623	155
4	2049	233.664058958513	156
4	2057	234.696266031841	157
4	2067	236.266940326993	158
4	2075	237.72292320459	159
4	2083	239.54267019241	160
5	18	0.289679693017	0
5	26	1.791676190428	1
5	42	3.486511881954	2
5	52	5.245162974244	3
5	66	6.583436993017	4
5	80	8.551654768236	5
5	88	10.073832504578	6
5	96	11.791975207508	7
5	108	12.909314469024	8
5	120	13.972565765774	9
5	136	15.408142343076	10
5	152	16.441010178573	11
5	160	17.650231738222	12
5	168	19.023542524018	13
5	176	20.755685114524	14
5	188	22.283310077149	15
5	202	23.753342840351	16
5	210	24.819729491353	17
5	218	25.9588381577	18
5	226	27.125255343274	19
5	240	29.047001989538	20
5	256	30.809450356301	21
5	264	32.311339456526	22
5	280	33.59298132651	23
5	318	35.521909111435	24
5	328	36.835731455984	25
5	350	38.545673597814	26
5	364	40.364674727628	27
5	382	42.261669030723	28
5	406	44.326747098279	29
5	416	46.149892920437	30
5	424	47.901570868767	31
5	436	49.170860967496	32
5	444	50.876577349999	33
5	460	52.786153224915	34
5	468	54.48678890511	35
5	476	55.803637670956	36
5	494	57.492630537625	37
5	508	58.823414225293	38
5	522	60.540076920393	39
5	532	61.587464513621	40
5	552	62.942693564676	41
5	560	63.99488136451	42
5	570	65.283119319728	43
5	584	67.307984389126	44
5	594	69.123126031067	45
5	606	70.564333204564	46
5	618	71.798861283186	47
5	630	73.192522053417	48
5	658	75.169159831564	49
5	678	77.028489074542	50
5	688	78.165784776112	51
5	706	79.554201045061	52
5	720	81.064117334073	53
5	728	82.93299032764	54
5	756	85.120240083444	55
5	782	86.592050688833	56
5	792	88.410301686829	57
5	800	89.8927920598	58
5	824	90.994098196229	59
5	832	92.555207639297	60
5	842	93.894209539351	61
5	852	95.679133524203	62
5	860	97.171579934189	63
5	872	98.281588348158	64
5	880	99.410947567766	65
5	890	100.714898269712	66
5	904	101.855935676515	67
5	916	103.46866687686	68
5	926	105.275824779071	69
5	934	107.11265525519	70
5	948	108.178167595044	71
5	970	109.811836638268	72
5	988	111.653374148875	73
5	1000	112.977382889268	74
5	1032	114.373220923819	75
5	1046	115.730460431541	76
5	1054	117.440413136345	77
5	1064	118.863014960588	78
5	1074	120.817877014916	79
5	1090	122.510880198692	80
5	1104	124.379352328641	81
5	1114	125.380964133705	82
5	1128	127.046497108024	83
5	1146	128.565807019569	84
5	1162	130.504489656841	85
5	1194	132.25043209354	86
5	1202	133.419658146091	87
5	1210	135.227429605209	88
5	1240	136.552754359485	89
5	1252	137.491964316679	90
5	1260	138.703582411637	91
5	1270	140.148124670372	92
5	1284	141.402854238311	93
5	1292	142.847790818586	94
5	1312	144.725035139702	95
5	1320	145.922205649033	96
5	1328	146.989669135388	97
5	1338	148.506171920087	98
5	1350	149.954476118131	99
5	1384	152.115078805577	100
5	1396	153.438836636503	101
5	1406	154.42091327038	102
5	1426	156.216075346776	103
5	1434	157.323331634067	104
5	1442	159.153399926323	105
5	1452	160.316387228111	106
5	1474	161.742538120162	107
5	1486	163.161152603502	108
5	1494	164.50234775354	109
5	1516	166.271715259974	110
5	1524	167.416606817224	111
5	1534	168.854965252335	112
5	1542	170.170499871223	113
5	1558	171.241108963229	114
5	1566	172.297178887488	115
5	1580	173.781096574481	116
5	1594	175.518870524534	117
5	1606	176.795650515064	118
5	1624	178.696257641842	119
5	1642	180.602125774285	120
5	1652	182.513985331949	121
5	1664	183.898468234444	122
5	1672	185.44709014956	123
5	1684	186.671413269492	124
5	1696	187.791774716311	125
5	1714	189.722640726801	126
5	1722	191.199455692299	127
5	1734	193.085801011531	128
5	1744	194.884833758319	129
5	1754	196.001681130291	130
5	1762	197.235386729591	131
5	1770	198.243476498157	132
5	1780	199.833465748353	133
5	1792	201.265262888084	134
5	1806	202.465809098655	135
5	1818	203.501701518496	136
5	1826	205.122567345002	137
5	1838	206.845140846997	138
5	1846	208.658214794831	139
5	1854	210.193721777987	140
5	1866	211.523433887653	141
5	1876	213.163444117022	142
5	1896	215.196329737963	143
5	1904	216.798562660158	144
5	1924	218.275851929179	145
5	1932	219.608342095436	146
5	1942	220.886482896635	147
5	1954	221.937252135674	148
5	1974	223.24916471016	149
5	1982	224.851192700238	150
5	1992	226.590629743913	151
5	2006	227.99080528612	152
5	2016	229.184424286745	153
5	2024	230.685704492337	154
5	2040	231.969619997623	155
5	2050	233.674058958513	156
5	2058	234.706266031841	157
5	2068	236.276940326993	158
5	2076	237.73292320459	159
5	2084	239.55267019241	160
6	31	3.392855021339	0
6	35	3.42168282953	1
6	47	5.187418655551	2
6	73	8.500564878326	3
6	113	13.873557682035	4
6	127	15.327706326683	5
6	131	15.373411711405	6
6	143	16.320908602148	7
6	147	16.369049911408	8
6	181	22.194397819989	9
6	193	23.64061285138	10
6	197	23.693506441276	11
6	231	28.932157068013	12
6	235	28.969919490309	13
6	247	30.715191304328	14
6	251	30.758272702053	15
6	269	33.491533336798	16
6	273	33.533066313551	17
6	293	35.273590799823	18
6	297	35.304662109493	19
6	305	35.413125816026	20
6	333	38.361950606619	21
6	337	38.423900396247	22
6	359	40.287408371244	23
6	369	42.137696401764	24
6	373	42.186079794025	25
6	377	42.211708289229	26
6	391	44.149113618668	27
6	399	44.257745934161	28
6	431	49.123229162723	29
6	449	52.692952163628	30
6	453	52.717570532321	31
6	483	57.36970130149	32
6	501	58.724931650046	33
6	543	62.863417390369	34
6	565	65.245704543717	35
6	575	67.224572444804	36
6	599	70.490302014251	37
6	613	71.750358735472	38
6	625	73.125995577926	39
6	637	74.91064778923	40
6	641	74.933035783127	41
6	645	74.974211983664	42
6	649	75.060821378426	43
6	653	75.128701009471	44
6	663	76.850991608086	45
6	671	76.943732149523	46
6	683	78.109267461012	47
6	693	79.441036712677	48
6	711	80.984206618715	49
6	735	84.906243476039	50
6	743	84.979324252524	51
6	747	85.025718075573	52
6	751	85.071028577921	53
6	763	86.410934905233	54
6	771	86.477788800653	55
6	787	88.364111259297	56
6	805	90.821359720687	57
6	809	90.851926493893	58
6	817	90.932386993715	59
6	847	95.634321250665	60
6	867	98.230941627556	61
6	885	100.654337626033	62
6	895	101.780433832235	63
6	899	101.820848130723	64
6	909	103.416540373733	65
6	921	105.192269670129	66
6	943	108.132752615492	67
6	955	109.649788217352	68
6	975	111.529717562734	69
6	983	111.586094527984	70
6	1007	114.091757160974	71
6	1011	114.126453003209	72
6	1015	114.172373113249	73
6	1023	114.301414902307	74
6	1027	114.337581439064	75
6	1037	115.646492140485	76
6	1059	118.829882183033	77
6	1069	120.76945115996	78
6	1079	122.417424440964	79
6	1083	122.443484173305	80
6	1095	124.297114593761	81
6	1099	124.334278573387	82
6	1119	126.961666245383	83
6	1123	127.003769186721	84
6	1133	128.416039481911	85
6	1137	128.467067813337	86
6	1141	128.498294397137	87
6	1151	130.392837514432	88
6	1167	131.999726268111	89
6	1171	132.041349775804	90
6	1179	132.123042279941	91
6	1183	132.154213686807	92
6	1215	136.334338979215	93
6	1223	136.403876001781	94
6	1235	136.503299101683	95
6	1245	137.439412766195	96
6	1279	141.335413593933	97
6	1301	144.602104817543	98
6	1305	144.660101246228	99
6	1345	149.85021003949	100
6	1359	151.818052744766	101
6	1363	151.877811971912	102
6	1367	151.956887993747	103
6	1371	152.01109586845	104
6	1375	152.040013744637	105
6	1379	152.073457368355	106
6	1401	154.381439027711	107
6	1411	156.067465190014	108
6	1415	156.121765008859	109
6	1447	160.284690390174	110
6	1459	161.56026305945	111
6	1463	161.614346554916	112
6	1479	163.072565224417	113
6	1503	166.141977064158	114
6	1507	166.170893593693	115
6	1511	166.235256362893	116
6	1529	168.780512675551	117
6	1547	171.150345047882	118
6	1551	171.178413086549	119
6	1575	173.719703419223	120
6	1585	175.449856229622	121
6	1589	175.481085551575	122
6	1599	176.727924782855	123
6	1617	178.614243198162	124
6	1629	180.489663043264	125
6	1633	180.54534107895	126
6	1637	180.566627039297	127
6	1647	182.478223165158	128
6	1679	186.609235439074	129
6	1689	187.723094804814	130
6	1701	189.613350103406	131
6	1705	189.657430537231	132
6	1709	189.683605586805	133
6	1727	193.025991124672	134
6	1749	195.954149401286	135
6	1787	201.223550705044	136
6	1797	202.394967503106	137
6	1801	202.429918425758	138
6	1811	203.406467654151	139
6	1833	206.794079859488	140
6	1871	213.109244005839	141
6	1883	215.117709336595	142
6	1887	215.140672583269	143
6	1891	215.162620960722	144
6	1909	218.161443253103	145
6	1917	218.227234663545	146
6	1937	220.798898790621	147
6	1947	221.835160373841	148
6	1959	223.136691187392	149
6	1963	223.162925764866	150
6	1987	226.551289036684	151
6	1997	227.890834027086	152
6	2001	227.933930466103	153
6	2011	229.143023146696	154
6	2035	231.90771536937	155
6	2045	233.61402063407	156

