version 2
run General-3-20230921-23:15:45-8726
attr configname General
attr datetime 20230921-23:15:45
attr experiment General
attr inifile omnetpp.ini
attr iterationvars ""
attr iterationvarsf ""
attr measurement ""
attr network Network2
attr processid 8726
attr repetition 3
attr replication #3
attr resultdir results
attr runnumber 3
attr seedset 3
param Network2.node[*].transmissionTime "uniform(1s, 2s)"
param Network2.node[*].delayTime "uniform(0.01s, 0.2s)"
param Network2.node[*].processingTime exponential(0.01s)
param Network2.node[*].lossProbability 0.0

vector 0 Network2.node[0] txVector ETV
vector 1 Network2.node[1] txVector ETV
vector 2 Network2.node[2] txVector ETV
vector 3 Network2.node[4] txVector ETV
vector 4 Network2.node[5] rxVector ETV
vector 5 Network2.node[3] txVector ETV
vector 6 Network2.node[6] txVector ETV
0	1	0.114651601831	0
0	9	1.185376482154	1
0	19	2.310961798136	2
0	37	3.589449082105	3
0	49	4.847034373856	4
0	57	5.939251385233	5
0	73	7.502021481585	6
0	95	9.343062641401	7
0	111	10.662557676504	8
0	121	12.414697706536	9
0	141	14.341423391201	10
0	165	16.107576147257	11
0	173	17.35931765784	12
0	187	18.429450165783	13
0	199	19.494123359048	14
0	211	20.589004692924	15
0	223	22.212408306612	16
0	233	23.910073970979	17
0	243	25.449520472506	18
0	251	27.303751116222	19
0	261	29.046488388976	20
0	269	30.120526184164	21
0	277	31.404215633938	22
0	295	32.987527543049	23
0	307	34.264295459328	24
0	317	35.629777131438	25
0	325	36.630255946958	26
0	347	37.956519952345	27
0	355	39.752845967955	28
0	375	40.866290053886	29
0	385	42.156774945159	30
0	393	44.019380029824	31
0	403	45.91644363764	32
0	421	47.000524314421	33
0	435	48.628549799624	34
0	449	50.310316541533	35
0	461	51.385041449753	36
0	473	52.938474284786	37
0	495	53.944531327182	38
0	505	55.604878383524	39
0	513	57.43180553715	40
0	533	58.813630577012	41
0	553	60.479814363013	42
0	565	62.006776620236	43
0	575	63.93064334227	44
0	585	65.244644270113	45
0	595	66.636146028593	46
0	605	68.1941501138	47
0	615	69.938754873882	48
0	623	71.0455198114	49
0	635	72.983758235882	50
0	643	74.9446224543	51
0	655	76.455095289574	52
0	669	77.930052134973	53
0	677	79.035795172277	54
0	685	80.18840286445	55
0	695	81.626935723304	56
0	703	83.296958057975	57
0	715	85.05956048106	58
0	727	86.355146457508	59
0	745	87.790228501495	60
0	755	89.235229293883	61
0	767	90.328476875855	62
0	785	91.471569393596	63
0	803	92.929297332719	64
0	821	93.973774836	65
0	829	95.703274055451	66
0	845	97.44068437705	67
0	863	99.121470747815	68
0	873	100.22173775972	69
0	883	101.383642976239	70
0	909	102.677200921412	71
0	927	104.215079664785	72
0	935	105.526759494628	73
0	945	106.592555600052	74
0	961	108.226816649615	75
0	971	109.699346497023	76
0	979	110.928260842638	77
0	997	112.712079187922	78
0	1009	114.228478332816	79
0	1017	115.842964207122	80
0	1033	116.875655552206	81
0	1049	118.508392267461	82
0	1069	120.334917528621	83
0	1083	121.632860655963	84
0	1095	123.051277231259	85
0	1137	125.049823833231	86
0	1145	126.284281581707	87
0	1167	127.306979968745	88
0	1175	128.96559843125	89
0	1201	130.42111607182	90
0	1211	131.830779242163	91
0	1223	133.825654670197	92
0	1239	135.512159134095	93
0	1247	136.564949657835	94
0	1257	137.723680382894	95
0	1271	139.70452809387	96
0	1285	140.821803210602	97
0	1293	142.141892932654	98
0	1301	143.28022214707	99
0	1319	144.388134825574	100
0	1331	146.359141415516	101
0	1345	148.156853955304	102
0	1361	149.812287977496	103
0	1369	151.737982786093	104
0	1377	153.226495323535	105
0	1385	155.072705142032	106
0	1401	156.966817158805	107
0	1411	157.974891082682	108
0	1421	159.408820921621	109
0	1439	160.483109021625	110
0	1449	162.12361050753	111
0	1463	163.200350366599	112
0	1477	164.827648795276	113
0	1489	166.360990732276	114
0	1501	168.22409742565	115
0	1523	170.200170199919	116
0	1537	171.80866012822	117
0	1557	173.100275712154	118
0	1567	174.757333838913	119
0	1579	176.484382146803	120
0	1587	178.355544308733	121
0	1599	180.225627981892	122
0	1607	181.708447229883	123
0	1623	183.653825923169	124
0	1631	184.921254778348	125
0	1639	186.172165476551	126
0	1647	187.352918157188	127
0	1655	189.096024181761	128
0	1667	190.127353445461	129
0	1675	191.825869126545	130
0	1685	193.348943822618	131
0	1695	195.003467914016	132
0	1703	196.185076738308	133
0	1711	198.022662016629	134
0	1721	199.274535487472	135
0	1729	200.426554373764	136
0	1747	201.452139161593	137
0	1755	202.52116603341	138
0	1771	204.18469953334	139
0	1783	205.879966335204	140
0	1797	207.501421561763	141
0	1811	208.678636431992	142
0	1829	209.82119990007	143
0	1837	211.792398707541	144
0	1847	213.646431979789	145
0	1863	215.047433123291	146
0	1881	217.030463138894	147
0	1891	218.910544673745	148
0	1903	220.410787294684	149
0	1931	222.167629858777	150
0	1939	223.74202159496	151
0	1947	225.137460831618	152
0	1957	226.580702826446	153
0	1967	228.184023821792	154
0	1979	229.393586939965	155
0	1987	230.630949198334	156
0	1995	231.835125586782	157
0	2003	233.660263076257	158
0	2019	235.190297035333	159
0	2033	237.179645808479	160
0	2045	239.11314668769	161
1	3	0.14297423212	0
1	11	1.197698865979	1
1	21	2.332239786254	2
1	39	3.621804433108	3
1	51	4.867630527312	4
1	59	5.963040896589	5
1	75	7.523818633948	6
1	97	9.353277183856	7
1	113	10.673793109085	8
1	123	12.44297321418	9
1	143	14.353509030329	10
1	167	16.140378223644	11
1	175	17.369912307842	12
1	189	18.459409972828	13
1	201	19.509330418184	14
1	213	20.660254194611	15
1	225	22.222666900238	16
1	235	23.921078439446	17
1	245	25.494397562285	18
1	253	27.317385039747	19
1	263	29.063006818562	20
1	271	30.132920111937	21
1	279	31.423904974942	22
1	297	32.998315683229	23
1	309	34.289290628984	24
1	319	35.64735853627	25
1	327	36.649024966821	26
1	349	37.967637556291	27
1	357	39.769941933917	28
1	377	40.899387245997	29
1	387	42.173828868923	30
1	395	44.037328020461	31
1	405	45.936418973923	32
1	423	47.015776769412	33
1	437	48.645304076863	34
1	451	50.325362693942	35
1	463	51.400478260584	36
1	475	52.948997385222	37
1	497	53.956394502694	38
1	507	55.620740299927	39
1	515	57.480158540853	40
1	535	58.824560297311	41
1	555	60.493991915745	42
1	567	62.017182696172	43
1	577	63.944595919729	44
1	587	65.292539769405	45
1	597	66.646294269801	46
1	607	68.205291336078	47
1	617	69.950664039117	48
1	625	71.059052211849	49
1	637	73.010297989443	50
1	645	74.958124077204	51
1	657	76.485269970052	52
1	671	77.947651877731	53
1	679	79.064055661274	54
1	687	80.202196111311	55
1	697	81.642698877471	56
1	705	83.317736275417	57
1	717	85.072771559846	58
1	729	86.377989221487	59
1	747	87.803091222519	60
1	757	89.253500104654	61
1	769	90.355856955551	62
1	787	91.510657750846	63
1	805	92.942188731209	64
1	823	93.986776500752	65
1	831	95.730338076931	66
1	847	97.455078474884	67
1	865	99.135462541707	68
1	875	100.242017807281	69
1	885	101.419876365012	70
1	911	102.71962127964	71
1	929	104.242209500192	72
1	937	105.548479980038	73
1	947	106.611306520652	74
1	963	108.247248772206	75
1	973	109.743353848837	76
1	981	110.9468632782	77
1	999	112.729162012138	78
1	1011	114.240235280657	79
1	1019	115.857219897415	80
1	1035	116.91170836278	81
1	1051	118.533069489408	82
1	1071	120.372445794654	83
1	1085	121.647292609904	84
1	1097	123.064694828487	85
1	1139	125.061943228639	86
1	1147	126.310539143429	87
1	1169	127.320640774986	88
1	1177	128.977824773839	89
1	1203	130.439890028865	90
1	1213	131.856923474682	91
1	1225	133.838372093834	92
1	1241	135.532792755113	93
1	1249	136.584599789524	94
1	1259	137.733802662068	95
1	1273	139.731777825011	96
1	1287	140.832027618166	97
1	1295	142.159349023331	98
1	1303	143.299990112947	99
1	1321	144.419579999852	100
1	1333	146.369499631339	101
1	1347	148.185485304505	102
1	1363	149.825171767071	103
1	1371	151.754570980495	104
1	1379	153.241205763689	105
1	1387	155.092328845162	106
1	1403	157.020321013283	107
1	1413	157.990010979714	108
1	1423	159.432602863386	109
1	1441	160.502746187845	110
1	1451	162.152100347374	111
1	1465	163.223804696745	112
1	1479	164.848644265155	113
1	1491	166.38025454095	114
1	1503	168.271985027849	115
1	1525	170.226644418183	116
1	1539	171.825532764008	117
1	1559	173.133009805802	118
1	1569	174.775852528981	119
1	1581	176.499394974566	120
1	1589	178.381385890021	121
1	1601	180.266105711412	122
1	1609	181.72437021749	123
1	1625	183.671555670396	124
1	1633	184.961874389051	125
1	1641	186.193755528511	126
1	1649	187.382771440233	127
1	1657	189.114296993725	128
1	1669	190.138567213427	129
1	1677	191.836197121681	130
1	1687	193.362717891607	131
1	1697	195.013718051397	132
1	1705	196.205144584384	133
1	1713	198.035321811633	134
1	1723	199.286691715625	135
1	1731	200.452169437648	136
1	1749	201.462533697083	137
1	1757	202.535628719314	138
1	1773	204.194873398937	139
1	1785	205.897505332611	140
1	1799	207.513327548852	141
1	1813	208.692778533957	142
1	1831	209.832518659284	143
1	1839	211.802774356769	144
1	1849	213.660293799241	145
1	1865	215.063865132238	146
1	1883	217.047943363245	147
1	1893	218.92144012904	148
1	1905	220.425445987575	149
1	1933	222.180125673616	150
1	1941	223.765092245706	151
1	1949	225.168451048877	152
1	1959	226.595135298213	153
1	1969	228.204819099019	154
1	1981	229.410608096276	155
1	1989	230.643982567904	156
1	1997	231.846076787269	157
1	2005	233.67471957819	158
1	2021	235.201937899911	159
1	2035	237.198076886121	160
1	2047	239.123797385295	161
2	5	0.160124635094	0
2	15	1.21898439255	1
2	25	2.384876763625	2
2	29	2.413358561948	3
2	33	2.443898755813	4
2	43	3.670893157012	5
2	61	5.976491081941	6
2	65	6.03667543559	7
2	69	6.060714204529	8
2	79	7.555574225155	9
2	83	7.591123507143	10
2	87	7.629921659725	11
2	91	7.655402550326	12
2	101	9.390832618033	13
2	105	9.445913322379	14
2	115	10.694748018963	15
2	125	12.474268842264	16
2	129	12.509373207637	17
2	133	12.560778244656	18
2	137	12.585626250562	19
2	147	14.37634164428	20
2	151	14.433630004489	21
2	155	14.460280710106	22
2	159	14.502970380226	23
2	169	16.15196016802	24
2	179	17.439419690165	25
2	183	17.462999221327	26
2	191	18.486394596569	27
2	195	18.511791872873	28
2	205	19.536806639003	29
2	215	20.687376771399	30
2	219	20.744339225886	31
2	227	22.235099718314	32
2	239	23.953971002584	33
2	247	25.516454364264	34
2	257	27.381498049351	35
2	273	30.144950731321	36
2	283	31.469087140722	37
2	287	31.506448629919	38
2	291	31.52936063739	39
2	301	33.039665743991	40
2	313	34.32617253165	41
2	321	35.669465829569	42
2	331	36.6819983167	43
2	335	36.747646895677	44
2	339	36.790559555085	45
2	343	36.848609985257	46
2	361	39.792704899942	47
2	365	39.834273261318	48
2	369	39.879406789036	49
2	381	40.944632718017	50
2	399	44.084224816194	51
2	409	45.970813747576	52
2	413	46.00693568687	53
2	417	46.038566152525	54
2	425	47.030299594259	55
2	429	47.081853668246	56
2	441	48.680084892794	57
2	445	48.761568565872	58
2	455	50.366003967992	59
2	467	51.471796535982	60
2	479	52.97682442325	61
2	483	53.014852808782	62
2	487	53.081717579526	63
2	491	53.10852547692	64
2	501	53.998461236965	65
2	509	55.630871991365	66
2	517	57.502742196287	67
2	521	57.535903607843	68
2	525	57.572873258011	69
2	529	57.602581062639	70
2	537	58.847652658248	71
2	541	58.896211801499	72
2	545	58.979976637131	73
2	549	59.00438206912	74
2	559	60.528705119773	75
2	571	62.042547238639	76
2	581	64.005671882114	77
2	591	65.355327435743	78
2	599	66.662248189262	79
2	611	68.241740047346	80
2	629	71.094996888211	81
2	649	75.006465387898	82
2	661	76.547205871315	83
2	665	76.580620986466	84
2	691	80.231354879741	85
2	709	83.352540577081	86
2	721	85.138669289085	87
2	731	86.398741478121	88
2	735	86.42653003167	89
2	739	86.453049213404	90
2	751	87.84039425674	91
2	759	89.26769773768	92
2	763	89.296230380546	93
2	773	90.402335603383	94
2	777	90.433649267683	95
2	781	90.464575007294	96
2	791	91.553425683064	97
2	795	91.580149413671	98
2	799	91.615726391287	99
2	807	92.962573197143	100
2	811	92.995019315206	101
2	815	93.043908877009	102
2	825	94.008054238908	103
2	835	95.764931206336	104
2	839	95.797769776019	105
2	849	97.474804499629	106
2	853	97.501259964375	107
2	857	97.529663117961	108
2	869	99.17005584092	109
2	879	100.302502119676	110
2	887	101.435121251561	111
2	891	101.465639956021	112
2	895	101.499633631581	113
2	899	101.520865996185	114
2	903	101.564342814366	115
2	915	102.747746616182	116
2	919	102.771233798078	117
2	923	102.809840811596	118
2	941	105.578743383779	119
2	951	106.650058189572	120
2	955	106.674712552055	121
2	967	108.284125556692	122
2	975	109.765429024059	123
2	985	110.978339643231	124
2	989	111.009690898463	125
2	993	111.048047864458	126
2	1003	112.763179009257	127
2	1021	115.87603036319	128
2	1025	115.912690198949	129
2	1029	115.960356116063	130
2	1039	116.963653545707	131
2	1043	117.007573989408	132
2	1055	118.572585368546	133
2	1059	118.613078560506	134
2	1063	118.646683040942	135
2	1073	120.386871947226	136
2	1077	120.432246529044	137
2	1089	121.679225037765	138
2	1101	123.095793221409	139
2	1105	123.140672385906	140
2	1109	123.17782457915	141
2	1113	123.209943122662	142
2	1117	123.268803064211	143
2	1121	123.30013952351	144
2	1125	123.397410530534	145
2	1129	123.431195999413	146
2	1133	123.474615719098	147
2	1151	126.350228601864	148
2	1155	126.415736144414	149
2	1159	126.437530278236	150
2	1163	126.47546450404	151
2	1181	129.001656681401	152
2	1185	129.074697944654	153
2	1189	129.112637536061	154
2	1193	129.154143677085	155
2	1197	129.185118670183	156
2	1207	130.483640685445	157
2	1217	131.884217960881	158
2	1227	133.85938762888	159
2	1231	133.919964333989	160
2	1235	133.991220729372	161
2	1243	135.564174482412	162
2	1253	136.612787490252	163
2	1261	137.757571908448	164
2	1265	137.788279771817	165
2	1275	139.753373216571	166
2	1279	139.801175295541	167
2	1307	143.352878801784	168
2	1311	143.3877539618	169
2	1315	143.415245479484	170
2	1325	144.458830124982	171
2	1337	146.392770109721	172
2	1341	146.418289486143	173
2	1349	148.223290712364	174
2	1353	148.254578015941	175
2	1357	148.291942440524	176
2	1373	151.768816678037	177
2	1381	153.255815889021	178
2	1389	155.106904698831	179
2	1393	155.162362667921	180
2	1397	155.215793582739	181
2	1407	157.076941788629	182
2	1417	158.030821569091	183
2	1427	159.459058171243	184
2	1431	159.494273328615	185
2	1435	159.534658358259	186
2	1445	160.530093636098	187
2	1455	162.203960579099	188
2	1459	162.238642194632	189
2	1469	163.271231571395	190
2	1473	163.301197237445	191
2	1481	164.87133953649	192
2	1485	164.930508382137	193
2	1493	166.401395022383	194
2	1497	166.487645803837	195
2	1507	168.302578739948	196
2	1511	168.332039513302	197
2	1515	168.365127333477	198
2	1519	168.406148651909	199
2	1529	170.255399176757	200
2	1533	170.297044210438	201
2	1541	171.849903423212	202
2	1545	171.893001434266	203
2	1549	171.930797923416	204
2	1553	171.987374175295	205
2	1563	173.171791435132	206
2	1573	174.835977470726	207
2	1593	178.420985973324	208
2	1613	181.756359586331	209
2	1617	181.781701912059	210
2	1627	183.716311810922	211
2	1651	187.403448702562	212
2	1661	189.166671388674	213
2	1681	191.863528258835	214
2	1691	193.389157902178	215
2	1715	198.089524336607	216
2	1725	199.301166672516	217
2	1735	200.477819200691	218
2	1739	200.504347818544	219
2	1743	200.533415906787	220
2	1761	202.57070049125	221
2	1765	202.605580636636	222
2	1777	204.258265968327	223
2	1789	205.927505669193	224
2	1793	205.964443232217	225
2	1803	207.538166366606	226
2	1807	207.572009577061	227
2	1817	208.731796805515	228
2	1821	208.765947206045	229
2	1825	208.795493298346	230
2	1833	209.866678142173	231
2	1841	211.816982167399	232
2	1853	213.698232767063	233
2	1857	213.745709563151	234
2	1867	215.078467090467	235
2	1871	215.150969780765	236
2	1875	215.196773984077	237
2	1887	217.074898253901	238
2	1897	218.94818673972	239
2	1909	220.487635701515	240
2	1913	220.520661424115	241
2	1917	220.557301752956	242
2	1921	220.590222500439	243
2	1925	220.61580368727	244
2	1951	225.197297577391	245
2	1963	226.62699467778	246
2	1971	228.2155754111	247
2	1975	228.243426910661	248
2	1991	230.678397220148	249
2	2009	233.746598244522	250
2	2013	233.777019817963	251
2	2025	235.261497208143	252
2	2029	235.30052006382	253
2	2039	237.220351396618	254
2	2051	239.159950249418	255
3	7	0.175870491842	0
3	17	1.235020607712	1
3	35	2.469054350744	2
3	47	3.719297964757	3
3	55	4.902682615645	4
3	71	6.072962888838	5
3	93	7.668182183806	6
3	109	9.468904688326	7
3	119	10.730003319881	8
3	139	12.610994479286	9
3	163	14.528438708366	10
3	171	16.166356527775	11
3	185	17.485289786069	12
3	197	18.534780279671	13
3	209	19.5797143599	14
3	221	20.757722662459	15
3	231	22.261510658317	16
3	241	23.997579242845	17
3	249	25.526677800098	18
3	259	27.39609431022	19
3	267	29.093389118057	20
3	275	30.160634118644	21
3	293	31.539668439853	22
3	305	33.075003646007	23
3	315	34.341454287782	24
3	323	35.688922866305	25
3	345	36.859039785973	26
3	353	38.008844247403	27
3	373	39.911538139755	28
3	383	40.960049395367	29
3	391	42.215951092321	30
3	401	44.104136094592	31
3	419	46.050048947432	32
3	433	47.119722064935	33
3	447	48.785070634924	34
3	459	50.402916050513	35
3	471	51.50872742802	36
3	493	53.120377954934	37
3	503	54.011914800577	38
3	511	55.64195881733	39
3	531	57.619399764133	40
3	551	59.015320698474	41
3	563	60.583563592859	42
3	573	62.05450452841	43
3	583	64.017228866592	44
3	593	65.376151847219	45
3	603	66.697274449602	46
3	613	68.263185306543	47
3	621	70.006558599467	48
3	633	71.147895796094	49
3	641	73.041848341681	50
3	653	75.034349116729	51
3	667	76.608559734638	52
3	675	77.993868383313	53
3	683	79.085326915063	54
3	693	80.244167872396	55
3	701	81.704826781576	56
3	713	83.416597684297	57
3	725	85.20430985065	58
3	743	86.484053200875	59
3	753	87.850612651425	60
3	765	89.331916833824	61
3	783	90.475468921009	62
3	801	91.634034040217	63
3	819	93.099091669917	64
3	827	94.021481963746	65
3	843	95.830953069082	66
3	861	97.57651531697	67
3	871	99.18920122378	68
3	881	100.313477959596	69
3	907	101.600978859601	70
3	925	102.836667578653	71
3	933	104.265766900455	72
3	943	105.599364732128	73
3	959	106.715271080867	74
3	969	108.305670590577	75
3	977	109.790830442331	76
3	995	111.058273083142	77
3	1007	112.795346538807	78
3	1015	114.289340762761	79
3	1031	115.984445286968	80
3	1047	117.049169922056	81
3	1067	118.687211087157	82
3	1081	120.486644756679	83
3	1093	121.728932075301	84
3	1135	123.492845762092	85
3	1143	125.094669130733	86
3	1165	126.495802519893	87
3	1173	127.34775268073	88
3	1199	129.205974403114	89
3	1209	130.494185392744	90
3	1221	131.930736619819	91
3	1237	134.010917938065	92
3	1245	135.581490891105	93
3	1255	136.659566760241	94
3	1269	137.830814279261	95
3	1283	139.830625055706	96
3	1291	140.870146137267	97
3	1299	142.184585325911	98
3	1317	143.431873881635	99
3	1329	144.517247654126	100
3	1343	146.438966178773	101
3	1359	148.302803038139	102
3	1367	149.860636569168	103
3	1375	151.785347131581	104
3	1383	153.276763151834	105
3	1399	155.227716277492	106
3	1409	157.088706292557	107
3	1419	158.043092232978	108
3	1437	159.547291569145	109
3	1447	160.543154336419	110
3	1461	162.258259091235	111
3	1475	163.311385446771	112
3	1487	164.941040289748	113
3	1499	166.505056452207	114
3	1521	168.420829031835	115
3	1535	170.316498988085	116
3	1555	172.009446868885	117
3	1565	173.185663335202	118
3	1577	174.88071571593	119
3	1585	176.525389430836	120
3	1597	178.446798420679	121
3	1605	180.304636666306	122
3	1621	181.833471838703	123
3	1629	183.731831812364	124
3	1637	184.991311193293	125
3	1645	186.257810671383	126
3	1653	187.418635955228	127
3	1665	189.205165953798	128
3	1673	190.168316018146	129
3	1683	191.881823422284	130
3	1693	193.420281165733	131
3	1701	195.065653486337	132
3	1709	196.2574009844	133
3	1719	198.128034509608	134
3	1727	199.31524490058	135
3	1745	200.546370829101	136
3	1753	201.515038379443	137
3	1769	202.64313678352	138
3	1781	204.325480009373	139
3	1795	205.98924319694	140
3	1809	207.584426146061	141
3	1827	208.818232094405	142
3	1835	209.893257589612	143
3	1845	211.853595905946	144
3	1861	213.786713592719	145
3	1879	215.255992508709	146
3	1889	217.086443937655	147
3	1901	218.971487020958	148
3	1929	220.650285504392	149
3	1937	222.213392356995	150
3	1945	223.797232246021	151
3	1955	225.224917431894	152
3	1965	226.649391108584	153
3	1977	228.255016112829	154
3	1985	229.435279676012	155
3	1993	230.689079298281	156
3	2001	231.879938268075	157
3	2017	233.821329424514	158
3	2031	235.329332306224	159
3	2043	237.254259255353	160
3	2053	239.171841311567	161
4	8	0.185870491842	0
4	18	1.245020607712	1
4	36	2.479054350744	2
4	48	3.729297964757	3
4	56	4.912682615645	4
4	72	6.082962888838	5
4	94	7.678182183806	6
4	110	9.478904688326	7
4	120	10.740003319881	8
4	140	12.620994479286	9
4	164	14.538438708366	10
4	172	16.176356527775	11
4	186	17.495289786069	12
4	198	18.544780279671	13
4	210	19.5897143599	14
4	222	20.767722662459	15
4	232	22.271510658317	16
4	242	24.007579242845	17
4	250	25.536677800098	18
4	260	27.40609431022	19
4	268	29.103389118057	20
4	276	30.170634118644	21
4	294	31.549668439853	22
4	306	33.085003646007	23
4	316	34.351454287782	24
4	324	35.698922866305	25
4	346	36.869039785973	26
4	354	38.018844247403	27
4	374	39.921538139755	28
4	384	40.970049395367	29
4	392	42.225951092321	30
4	402	44.114136094592	31
4	420	46.060048947432	32
4	434	47.129722064935	33
4	448	48.795070634924	34
4	460	50.412916050513	35
4	472	51.51872742802	36
4	494	53.130377954934	37
4	504	54.021914800577	38
4	512	55.65195881733	39
4	532	57.629399764133	40
4	552	59.025320698474	41
4	564	60.593563592859	42
4	574	62.06450452841	43
4	584	64.027228866592	44
4	594	65.386151847219	45
4	604	66.707274449602	46
4	614	68.273185306543	47
4	622	70.016558599467	48
4	634	71.157895796094	49
4	642	73.051848341681	50
4	654	75.044349116729	51
4	668	76.618559734638	52
4	676	78.003868383313	53
4	684	79.095326915063	54
4	694	80.254167872396	55
4	702	81.714826781576	56
4	714	83.426597684297	57
4	726	85.21430985065	58
4	744	86.494053200875	59
4	754	87.860612651425	60
4	766	89.341916833824	61
4	784	90.485468921009	62
4	802	91.644034040217	63
4	820	93.109091669917	64
4	828	94.031481963746	65
4	844	95.840953069082	66
4	862	97.58651531697	67
4	872	99.19920122378	68
4	882	100.323477959596	69
4	908	101.610978859601	70
4	926	102.846667578653	71
4	934	104.275766900455	72
4	944	105.609364732128	73
4	960	106.725271080867	74
4	970	108.315670590577	75
4	978	109.800830442331	76
4	996	111.068273083142	77
4	1008	112.805346538807	78
4	1016	114.299340762761	79
4	1032	115.994445286968	80
4	1048	117.059169922056	81
4	1068	118.697211087157	82
4	1082	120.496644756679	83
4	1094	121.738932075301	84
4	1136	123.502845762092	85
4	1144	125.104669130733	86
4	1166	126.505802519893	87
4	1174	127.35775268073	88
4	1200	129.215974403114	89
4	1210	130.504185392744	90
4	1222	131.940736619819	91
4	1238	134.020917938065	92
4	1246	135.591490891105	93
4	1256	136.669566760241	94
4	1270	137.840814279261	95
4	1284	139.840625055706	96
4	1292	140.880146137267	97
4	1300	142.194585325911	98
4	1318	143.441873881635	99
4	1330	144.527247654126	100
4	1344	146.448966178773	101
4	1360	148.312803038139	102
4	1368	149.870636569168	103
4	1376	151.795347131581	104
4	1384	153.286763151834	105
4	1400	155.237716277492	106
4	1410	157.098706292557	107
4	1420	158.053092232978	108
4	1438	159.557291569145	109
4	1448	160.553154336419	110
4	1462	162.268259091235	111
4	1476	163.321385446771	112
4	1488	164.951040289748	113
4	1500	166.515056452207	114
4	1522	168.430829031835	115
4	1536	170.326498988085	116
4	1556	172.019446868885	117
4	1566	173.195663335202	118
4	1578	174.89071571593	119
4	1586	176.535389430836	120
4	1598	178.456798420679	121
4	1606	180.314636666306	122
4	1622	181.843471838703	123
4	1630	183.741831812364	124
4	1638	185.001311193293	125
4	1646	186.267810671383	126
4	1654	187.428635955228	127
4	1666	189.215165953798	128
4	1674	190.178316018146	129
4	1684	191.891823422284	130
4	1694	193.430281165733	131
4	1702	195.075653486337	132
4	1710	196.2674009844	133
4	1720	198.138034509608	134
4	1728	199.32524490058	135
4	1746	200.556370829101	136
4	1754	201.525038379443	137
4	1770	202.65313678352	138
4	1782	204.335480009373	139
4	1796	205.99924319694	140
4	1810	207.594426146061	141
4	1828	208.828232094405	142
4	1836	209.903257589612	143
4	1846	211.863595905946	144
4	1862	213.796713592719	145
4	1880	215.265992508709	146
4	1890	217.096443937655	147
4	1902	218.981487020958	148
4	1930	220.660285504392	149
4	1938	222.223392356995	150
4	1946	223.807232246021	151
4	1956	225.234917431894	152
4	1966	226.659391108584	153
4	1978	228.265016112829	154
4	1986	229.445279676012	155
4	1994	230.699079298281	156
4	2002	231.889938268075	157
4	2018	233.831329424514	158
4	2032	235.339332306224	159
4	2044	237.264259255353	160
4	2054	239.181841311567	161
5	13	1.208681076553	0
5	27	2.400024441503	1
5	31	2.432192441393	2
5	41	3.659353281236	3
5	45	3.704206511792	4
5	53	4.890132989863	5
5	67	6.049932425489	6
5	107	9.457849923724	7
5	117	10.712535498272	8
5	145	14.36444983923	9
5	161	14.51608941417	10
5	203	19.523096558193	11
5	207	19.553671631367	12
5	217	20.730966242311	13
5	229	22.248878018227	14
5	237	23.938729918101	15
5	265	29.077486637928	16
5	285	31.495117637915	17
5	289	31.519232261979	18
5	303	33.059215785588	19
5	311	34.301874618028	20
5	333	36.736321204733	21
5	341	36.820013308198	22
5	351	37.988771879398	23
5	367	39.856821946515	24
5	371	39.89589027952	25
5	389	42.191591377734	26
5	407	45.956935559791	27
5	411	45.989279033295	28
5	431	47.101675527138	29
5	439	48.66998583555	30
5	443	48.744779055197	31
5	457	50.380256591343	32
5	469	51.485775023141	33
5	485	53.050168945499	34
5	499	53.97649110791	35
5	523	57.558353446023	36
5	561	60.541564488163	37
5	601	66.685488109547	38
5	619	69.980256267815	39
5	631	71.119427953547	40
5	639	73.024568475942	41
5	651	75.022552167515	42
5	659	76.518574596441	43
5	673	77.979679720548	44
5	681	79.075145504963	45
5	689	80.219707373338	46
5	699	81.656132832974	47
5	711	83.369306701399	48
5	719	85.092058176573	49
5	723	85.19249761652	50
5	741	86.46776712373	51
5	761	89.280739271549	52
5	789	91.532266882256	53
5	797	91.596134514875	54
5	817	93.082356760101	55
5	841	95.819293578707	56
5	855	97.512509529037	57
5	859	97.5508295429	58
5	867	99.145737719098	59
5	893	101.487938380647	60
5	905	101.577323716905	61
5	917	102.761140656609	62
5	921	102.793870859847	63
5	931	104.255704202946	64
5	957	106.696642453896	65
5	983	110.95864267024	66
5	987	110.996192952492	67
5	991	111.027793251843	68
5	1005	112.776055854553	69
5	1013	114.265780979938	70
5	1027	115.930773745192	71
5	1045	117.019881719817	72
5	1065	118.660592249174	73
5	1079	120.447216599147	74
5	1091	121.696215149721	75
5	1103	123.124492811074	76
5	1115	123.2358512788	77
5	1127	123.410894918708	78
5	1131	123.448398396726	79
5	1141	125.079405148449	80
5	1149	126.326778968587	81
5	1171	127.335543116106	82
5	1195	129.171336240152	83
5	1205	130.4607662359	84
5	1215	131.869236857737	85
5	1219	131.911939912021	86
5	1263	137.77489539328	87
5	1267	137.804060330252	88
5	1281	139.817579819927	89
5	1289	140.846969995258	90
5	1297	142.171681469044	91
5	1313	143.401732261875	92
5	1327	144.471484172445	93
5	1335	146.382412123967	94
5	1355	148.277964146601	95
5	1365	149.837271466315	96
5	1405	157.033516159756	97
5	1429	159.480669291211	98
5	1443	160.515777463222	99
5	1453	162.172019435738	100
5	1457	162.217274151346	101
5	1505	168.291040904308	102
5	1509	168.317065330184	103
5	1531	170.274068899878	104
5	1571	174.810771736419	105
5	1575	174.856238384681	106
5	1583	176.51032444388	107
5	1595	178.434622912511	108
5	1603	180.285038898821	109
5	1611	181.738852279983	110
5	1615	181.766563087547	111
5	1619	181.79724884009	112
5	1635	184.978407559207	113
5	1643	186.245136422325	114
5	1663	189.192641059535	115
5	1671	190.154318261235	116
5	1679	191.850239806863	117
5	1699	195.050204681738	118
5	1707	196.235484394394	119
5	1717	198.107426981038	120
5	1751	201.475560669424	121
5	1759	202.546247774268	122
5	1767	202.631064350882	123
5	1775	204.236941396904	124
5	1779	204.273185923353	125
5	1787	205.913189380589	126
5	1815	208.713036919398	127
5	1823	208.777418539079	128
5	1843	211.835938850568	129
5	1855	213.731552099077	130
5	1859	213.771401415468	131
5	1877	215.227986063463	132
5	1899	218.960096692401	133
5	1911	220.503620357884	134
5	1919	220.576807215934	135
5	1923	220.604199480192	136
5	1927	220.632537566639	137
5	1935	222.195180426975	138
5	1943	223.783481912946	139
5	1953	225.209436931908	140
5	1961	226.616239098948	141
5	1983	229.422230916117	142
5	1999	231.867330601476	143
5	2015	233.791477163402	144
5	2041	237.234080224658	145
5	2049	239.136132539423	146
6	23	2.366692967769	0
6	63	6.006190419962	1
6	77	7.538315566295	2
6	81	7.577321372816	3
6	85	7.612153771461	4
6	89	7.643864050701	5
6	99	9.373789039012	6
6	103	9.409912465691	7
6	127	12.488575521058	8
6	131	12.529415293771	9
6	135	12.572964539429	10
6	149	14.401835341101	11
6	153	14.446088827896	12
6	157	14.49257342375	13
6	177	17.412028130349	14
6	181	17.451283390056	15
6	193	18.498114748997	16
6	255	27.333352528282	17
6	281	31.443547622551	18
6	299	33.024173120976	19
6	329	36.671268633074	20
6	337	36.770953350063	21
6	359	39.780215973483	22
6	363	39.820034159466	23
6	379	40.912024088348	24
6	397	44.062991361635	25
6	415	46.022911128673	26
6	427	47.049647801176	27
6	453	50.348519400734	28
6	465	51.439593517118	29
6	477	52.959064552483	30
6	481	53.003988598445	31
6	489	53.094294986915	32
6	519	57.513192130789	33
6	527	57.586212112388	34
6	539	58.865536110351	35
6	543	58.918703987861	36
6	547	58.990742031979	37
6	557	60.515262141133	38
6	569	62.031554800595	39
6	579	63.987543559934	40
6	589	65.333363140941	41
6	609	68.23101306063	42
6	627	71.075786851194	43
6	647	74.978475300045	44
6	663	76.560142405392	45
6	707	83.334459180009	46
6	733	86.415433599427	47
6	737	86.441686161053	48
6	749	87.824196808902	49
6	771	90.383172390618	50
6	775	90.418508111587	51
6	779	90.446744339405	52
6	793	91.56440410266	53
6	809	92.975627448273	54
6	813	93.027175202916	55
6	833	95.747815767924	56
6	837	95.786798859649	57
6	851	97.486382989252	58
6	877	100.28523745288	59
6	889	101.455594669905	60
6	897	101.510057957572	61
6	901	101.535196980848	62
6	913	102.735485900302	63
6	939	105.566681832165	64
6	949	106.638730268707	65
6	953	106.660197516536	66
6	965	108.267848817245	67
6	1001	112.751570755236	68
6	1023	115.89457765551	69
6	1037	116.940462544044	70
6	1041	116.986890161978	71
6	1053	118.553781582741	72
6	1057	118.586710479012	73
6	1061	118.627164767075	74
6	1075	120.400480870453	75
6	1087	121.660795635557	76
6	1099	123.07702949779	77
6	1107	123.164816890395	78
6	1111	123.190924279914	79
6	1119	123.280707179349	80
6	1123	123.330638906971	81
6	1153	126.393255766644	82
6	1157	126.426297264881	83
6	1161	126.454104173027	84
6	1179	128.989876402628	85
6	1183	129.059260778091	86
6	1187	129.093970701405	87
6	1191	129.143867989755	88
6	1229	133.8913152977	89
6	1233	133.959750338896	90
6	1251	136.597025697941	91
6	1277	139.775427589669	92
6	1305	143.318087997592	93
6	1309	143.374450806247	94
6	1323	144.431682010764	95
6	1339	146.404203448952	96
6	1351	148.238795827889	97
6	1391	155.125896885201	98
6	1395	155.176737220572	99
6	1415	158.014334301008	100
6	1425	159.445480298548	101
6	1433	159.51238244988	102
6	1467	163.245882957858	103
6	1471	163.289157394159	104
6	1483	164.909888000907	105
6	1495	166.436814778715	106
6	1513	168.354683436892	107
6	1517	168.382281310846	108
6	1527	170.244841961379	109
6	1543	171.882090198309	110
6	1547	171.916273337464	111
6	1551	171.969716787924	112
6	1561	173.153681919256	113
6	1591	178.39394842032	114
6	1659	189.151558188586	115
6	1689	193.376349441261	116
6	1733	200.464527558193	117
6	1737	200.493305788168	118
6	1741	200.520498549159	119
6	1763	202.588883397731	120
6	1791	205.941949590399	121
6	1801	207.524381491079	122
6	1805	207.550863720361	123
6	1819	208.74401264752	124
6	1851	213.679116832533	125
6	1869	215.126319242255	126
6	1873	215.164146495707	127
6	1885	217.062447838166	128
6	1895	218.936670707168	129
6	1907	220.476075684056	130
6	1915	220.538026002245	131
6	1973	228.228276176849	132
6	2007	233.736058937367	133
6	2011	233.759501138966	134
6	2023	235.213105150901	135
6	2027	235.277442171414	136
6	2037	237.208437085498	137

