version 2
run General-1-20230921-23:15:45-8726
attr configname General
attr datetime 20230921-23:15:45
attr experiment General
attr inifile omnetpp.ini
attr iterationvars ""
attr iterationvarsf ""
attr measurement ""
attr network Network2
attr processid 8726
attr repetition 1
attr replication #1
attr resultdir results
attr runnumber 1
attr seedset 1
param Network2.node[*].transmissionTime "uniform(1s, 2s)"
param Network2.node[*].delayTime "uniform(0.01s, 0.2s)"
param Network2.node[*].processingTime exponential(0.01s)
param Network2.node[*].lossProbability 0.0

vector 0 Network2.node[0] txVector ETV
vector 1 Network2.node[1] txVector ETV
vector 2 Network2.node[3] txVector ETV
vector 3 Network2.node[4] txVector ETV
vector 4 Network2.node[5] rxVector ETV
vector 5 Network2.node[6] txVector ETV
vector 6 Network2.node[2] txVector ETV
0	1	0.089234179703	0
0	9	2.086418987836	1
0	23	3.474329728053	2
0	33	4.931534537233	3
0	47	6.826141201078	4
0	55	7.968261333999	5
0	69	9.266756632483	6
0	81	10.532303290094	7
0	93	11.946482556292	8
0	101	13.394462739236	9
0	115	15.145274841811	10
0	133	16.808716340109	11
0	141	18.335774446025	12
0	151	19.604775495713	13
0	159	21.069087003244	14
0	167	22.193357965562	15
0	183	23.482075798211	16
0	195	24.90898562188	17
0	203	26.525314564702	18
0	215	28.09341502737	19
0	227	29.587184740582	20
0	241	30.904547145942	21
0	261	31.978805580063	22
0	273	33.665863878912	23
0	287	34.960375425526	24
0	295	35.981900233663	25
0	321	37.484976143464	26
0	337	39.028873380394	27
0	355	40.633589481124	28
0	389	42.015692231831	29
0	407	43.651982845393	30
0	419	45.244494709074	31
0	441	46.253407389046	32
0	449	47.772759209275	33
0	463	49.639367480417	34
0	471	51.409606209611	35
0	481	53.188528451491	36
0	489	54.730087828478	37
0	497	56.539165069005	38
0	515	57.853311594464	39
0	529	59.361827834398	40
0	537	60.902779642847	41
0	545	62.850328589213	42
0	575	64.484115353907	43
0	585	66.287278688634	44
0	593	67.825905973213	45
0	605	69.541613906976	46
0	619	71.541383025125	47
0	633	72.808021726907	48
0	645	74.699040677753	49
0	653	76.197023985098	50
0	663	78.113429836119	51
0	671	79.754335096693	52
0	681	81.361429264192	53
0	699	82.760582662076	54
0	715	84.471677981438	55
0	725	85.800230806116	56
0	741	87.120202243682	57
0	749	88.794051245209	58
0	759	89.806655009166	59
0	767	91.665972818277	60
0	775	93.088738548692	61
0	785	94.83605936112	62
0	809	96.14470130683	63
0	817	97.979555353178	64
0	827	99.95559890464	65
0	839	101.144343976286	66
0	851	102.504476633743	67
0	865	104.225447988492	68
0	877	105.332031862932	69
0	885	106.481963352888	70
0	895	107.743227559497	71
0	905	109.730553729116	72
0	925	111.511083282187	73
0	933	112.703510834958	74
0	943	114.167743848061	75
0	953	115.572731748579	76
0	967	116.698227832915	77
0	977	118.616266902426	78
0	1011	120.319766218664	79
0	1021	121.453919743543	80
0	1035	122.517191218102	81
0	1057	123.6139652388	82
0	1067	125.469321655931	83
0	1089	126.919153174508	84
0	1097	128.343802289927	85
0	1113	129.732418717008	86
0	1121	131.560396334512	87
0	1145	132.705861945527	88
0	1155	134.117409021251	89
0	1165	135.702346778132	90
0	1179	136.706190594828	91
0	1189	137.855030244107	92
0	1197	139.083447984776	93
0	1205	140.459811198416	94
0	1221	141.640279710882	95
0	1229	143.101022168186	96
0	1247	144.510113006115	97
0	1275	146.30707525707	98
0	1287	148.054457322817	99
0	1307	149.931491717819	100
0	1323	150.993333405007	101
0	1331	152.47191362072	102
0	1353	153.980323821197	103
0	1363	155.409998483614	104
0	1371	156.866556991248	105
0	1379	158.707979147446	106
0	1397	160.685069946696	107
0	1405	161.938508986619	108
0	1425	163.513978606446	109
0	1437	165.025575897547	110
0	1457	166.156991558506	111
0	1469	168.074597909937	112
0	1479	169.514944993316	113
0	1495	170.818290662144	114
0	1533	172.707012126579	115
0	1553	173.733232152772	116
0	1571	175.534132649314	117
0	1583	177.038865976392	118
0	1599	178.67423693592	119
0	1609	180.193041181316	120
0	1627	182.030290004921	121
0	1635	184.00450263371	122
0	1655	185.14561809472	123
0	1665	186.152225469129	124
0	1677	187.329531100701	125
0	1685	189.310921370407	126
0	1717	190.42120701925	127
0	1733	192.380009539082	128
0	1741	193.947410399682	129
0	1749	195.647943475406	130
0	1757	197.626616277854	131
0	1765	198.965457187156	132
0	1773	200.356067685067	133
0	1793	201.857319300418	134
0	1801	203.406372741453	135
0	1811	204.912340460235	136
0	1829	206.735342107836	137
0	1839	208.332335523685	138
0	1853	209.51040019177	139
0	1867	210.966043617	140
0	1877	212.899245952611	141
0	1885	214.211927113245	142
0	1895	215.795976889441	143
0	1909	217.610804309258	144
0	1927	219.378237372385	145
0	1941	220.870472181942	146
0	1951	222.360667496808	147
0	1961	223.741201576665	148
0	1969	225.678281966951	149
0	1979	227.081029570783	150
0	2003	228.639861267414	151
0	2013	229.958411622448	152
0	2029	231.46228206845	153
0	2045	232.783930217735	154
0	2069	234.341198447514	155
0	2091	235.505367541806	156
0	2103	237.178089342666	157
0	2111	239.139661878002	158
1	3	0.126198958082	0
1	11	2.107497921294	1
1	25	3.489963180366	2
1	35	4.942423332519	3
1	49	6.851434282665	4
1	57	7.984169668026	5
1	71	9.283520971968	6
1	83	10.542815733143	7
1	95	11.978751385152	8
1	103	13.417408937511	9
1	117	15.164995406144	10
1	135	16.840426830335	11
1	143	18.363594077494	12
1	153	19.617393856207	13
1	161	21.07928780725	14
1	169	22.205994476507	15
1	185	23.506013942646	16
1	197	24.91935225587	17
1	205	26.537587250692	18
1	217	28.113089702227	19
1	229	29.641940341734	20
1	243	30.915549982903	21
1	263	31.994370975076	22
1	275	33.677690514175	23
1	289	34.999934814079	24
1	297	36.013588633725	25
1	323	37.497098924784	26
1	339	39.056525284704	27
1	357	40.648879569755	28
1	391	42.040513697664	29
1	409	43.665726432634	30
1	421	45.261536060972	31
1	443	46.278792339885	32
1	451	47.812677805208	33
1	465	49.662525041647	34
1	473	51.42679417702	35
1	483	53.235313927539	36
1	491	54.746215505374	37
1	499	56.562116394451	38
1	517	57.865693660813	39
1	531	59.403876162606	40
1	539	60.915282641737	41
1	547	62.876572238738	42
1	577	64.499263565124	43
1	587	66.297308913881	44
1	595	67.836715675722	45
1	607	69.560140774991	46
1	621	71.559011285455	47
1	635	72.818298391261	48
1	647	74.713096917924	49
1	655	76.212583518911	50
1	665	78.124797281646	51
1	673	79.769672396274	52
1	683	81.374651587881	53
1	701	82.772732687013	54
1	717	84.521006277949	55
1	727	85.811417512693	56
1	743	87.144905525335	57
1	751	88.81521299665	58
1	761	89.834398109289	59
1	769	91.692351774592	60
1	777	93.102157858216	61
1	787	94.859273610257	62
1	811	96.160416018959	63
1	819	97.991296906859	64
1	829	99.97592421917	65
1	841	101.155134598634	66
1	853	102.52041304146	67
1	867	104.277929118368	68
1	879	105.350041128565	69
1	887	106.532168117805	70
1	897	107.756486038889	71
1	907	109.745251780689	72
1	927	111.523331071209	73
1	935	112.714233347358	74
1	945	114.189998112848	75
1	955	115.584138332	76
1	969	116.70914525408	77
1	979	118.628252832177	78
1	1013	120.342104262399	79
1	1023	121.467377080815	80
1	1037	122.5287732626	81
1	1059	123.645892365338	82
1	1069	125.506789071748	83
1	1091	126.933804085616	84
1	1099	128.360787037346	85
1	1115	129.761159027401	86
1	1123	131.577521944618	87
1	1147	132.719687226082	88
1	1157	134.151218104748	89
1	1167	135.743912289582	90
1	1181	136.725345810218	91
1	1191	137.870760653151	92
1	1199	139.14653634214	93
1	1207	140.479779679166	94
1	1223	141.651019401869	95
1	1231	143.114154109415	96
1	1249	144.522240926009	97
1	1277	146.330395457687	98
1	1289	148.067382014573	99
1	1309	149.95436641473	100
1	1325	151.004181872051	101
1	1333	152.502716855179	102
1	1355	153.993522244007	103
1	1365	155.423414746878	104
1	1373	156.876999550722	105
1	1381	158.746455916488	106
1	1399	160.704245085377	107
1	1407	161.960527859299	108
1	1427	163.526017539465	109
1	1439	165.037341452251	110
1	1459	166.175867797559	111
1	1471	168.085953080224	112
1	1481	169.525161070611	113
1	1497	170.829231604939	114
1	1535	172.722555922233	115
1	1555	173.751142399768	116
1	1573	175.561322215332	117
1	1585	177.067690789306	118
1	1601	178.686127735842	119
1	1611	180.232524208574	120
1	1629	182.041599889856	121
1	1637	184.015360376158	122
1	1657	185.155711260268	123
1	1667	186.173304111354	124
1	1679	187.345031859561	125
1	1687	189.32759861889	126
1	1719	190.436196367688	127
1	1735	192.397251659562	128
1	1743	193.984083295013	129
1	1751	195.660640379032	130
1	1759	197.660531370139	131
1	1767	198.987373351162	132
1	1775	200.376906925179	133
1	1795	201.883463531522	134
1	1803	203.420136472726	135
1	1813	204.925678338082	136
1	1831	206.76126093443	137
1	1841	208.360541217734	138
1	1855	209.529694278074	139
1	1869	210.978002120574	140
1	1879	212.909819049476	141
1	1887	214.227940745355	142
1	1897	215.835282485031	143
1	1911	217.625457181928	144
1	1929	219.39480619739	145
1	1943	220.880937671281	146
1	1953	222.382791681577	147
1	1963	223.76754071917	148
1	1971	225.707553531621	149
1	1981	227.103848244027	150
1	2005	228.651441614244	151
1	2015	229.978413768718	152
1	2031	231.48743254718	153
1	2047	232.817693508489	154
1	2071	234.352997996334	155
1	2093	235.522560310702	156
1	2105	237.201185734201	157
1	2113	239.149723348735	158
2	5	0.205690100955	0
2	17	2.15128295499	1
2	39	4.976714948313	2
2	43	5.007488011695	3
2	63	8.022393521843	4
2	73	9.295107747752	5
2	77	9.319211613887	6
2	85	10.553279793341	7
2	89	10.580816115491	8
2	123	15.244879581551	9
2	127	15.282351256484	10
2	137	16.856787711036	11
2	145	18.432824108149	12
2	155	19.641413062107	13
2	177	22.28439624182	14
2	189	23.534756540515	15
2	199	24.929478610614	16
2	211	26.644200136084	17
2	245	30.926238516884	18
2	257	31.035181075783	19
2	267	32.029030915789	20
2	277	33.695665549942	21
2	291	35.014002251639	22
2	299	36.026894206092	23
2	315	36.196193432807	24
2	327	37.526727230888	25
2	331	37.566694078042	26
2	351	39.176262854493	27
2	367	40.71872071075	28
2	393	42.053234553195	29
2	411	43.683498343626	30
2	415	43.712283515625	31
2	423	45.290619345176	32
2	427	45.316179323026	33
2	435	45.377307759637	34
2	457	47.86637928095	35
2	467	49.676290252926	36
2	485	53.247583659335	37
2	493	54.763849792767	38
2	509	56.638580801059	39
2	541	60.926132492068	40
2	561	62.98984622301	41
2	597	67.848793690051	42
2	601	67.900447609294	43
2	629	71.646784018587	44
2	637	72.831948317664	45
2	641	72.878813567513	46
2	649	74.731694980775	47
2	711	82.928397365145	48
2	735	85.909569606039	49
2	745	87.155137342913	50
2	755	88.859559805963	51
2	763	89.850524864816	52
2	771	91.706697052688	53
2	779	93.119587030428	54
2	789	94.871776146306	55
2	797	94.945573470218	56
2	805	95.021555804674	57
2	813	96.182659536355	58
2	833	100.031066780201	59
2	847	101.201771281771	60
2	861	102.57544620737	61
2	881	105.36797282491	62
2	891	106.57700826426	63
2	899	107.793652299405	64
2	909	109.767332890257	65
2	917	109.840868544327	66
2	921	109.866563215432	67
2	939	112.741513228461	68
2	963	115.690420954382	69
2	973	116.756353224426	70
2	981	118.646419063301	71
2	985	118.689965651402	72
2	1005	118.870710508296	73
2	1017	120.370557853994	74
2	1029	121.511257956728	75
2	1039	122.548887690343	76
2	1047	122.606968153631	77
2	1051	122.631624691035	78
2	1071	125.517269172392	79
2	1075	125.54614368098	80
2	1079	125.605002546805	81
2	1083	125.632109811652	82
2	1093	126.953967340464	83
2	1101	128.378927485013	84
2	1109	128.451436838834	85
2	1125	131.589635816715	86
2	1129	131.633544487319	87
2	1141	131.74402226396	88
2	1151	132.770062274917	89
2	1159	134.16184789339	90
2	1185	136.759998191864	91
2	1193	137.881205756264	92
2	1217	140.550600188748	93
2	1225	141.66697740776	94
2	1259	144.62206716386	95
2	1267	144.690359129558	96
2	1271	144.792392294008	97
2	1279	146.344690485986	98
2	1283	146.376636620128	99
2	1299	148.185026286539	100
2	1303	148.211434994292	101
2	1313	149.985222688489	102
2	1335	152.523162078834	103
2	1367	155.439822418707	104
2	1375	156.891384009859	105
2	1385	158.77593637109	106
2	1393	158.849272613204	107
2	1421	162.089240831998	108
2	1429	163.557538135738	109
2	1433	163.583913258313	110
2	1451	165.146272870965	111
2	1461	166.210319429247	112
2	1465	166.25148282061	113
2	1505	170.902057314133	114
2	1529	171.108155116895	115
2	1549	172.858353222641	116
2	1565	173.859207466978	117
2	1579	175.63730504405	118
2	1595	177.20518341114	119
2	1615	180.273873181762	120
2	1623	180.35990314307	121
2	1639	184.026931636277	122
2	1643	184.074333120127	123
2	1647	184.13983277758	124
2	1651	184.167667525685	125
2	1659	185.170544393741	126
2	1669	186.186081584781	127
2	1673	186.232272751764	128
2	1691	189.36196180255	129
2	1707	189.486602486901	130
2	1737	192.416385132604	131
2	1745	193.995915817184	132
2	1769	199.003599602705	133
2	1781	200.437973020828	134
2	1789	200.531470042134	135
2	1807	203.463655672748	136
2	1823	204.990218318321	137
2	1847	208.43401566871	138
2	1871	211.004624858759	139
2	1881	212.941503927374	140
2	1921	217.758816201456	141
2	1931	219.412067002425	142
2	1935	219.437278453944	143
2	1945	220.895412391573	144
2	2023	230.045545707454	145
2	2059	232.960664331296	146
2	2077	234.442649980962	147
2	2095	235.533473270931	148
2	2099	235.565869698368	149
2	2107	237.222487319271	150
2	2115	239.180815016712	151
3	7	0.21665893968	0
3	21	2.184991916675	1
3	31	3.57683505578	2
3	45	5.029260577604	3
3	53	6.916591965129	4
3	67	8.067461545341	5
3	79	9.359156570989	6
3	91	10.614188078892	7
3	99	12.008303590676	8
3	113	13.551372664627	9
3	131	15.304039718339	10
3	139	16.876552368691	11
3	149	18.486190128913	12
3	157	19.651918674002	13
3	165	21.103250014704	14
3	181	22.337618542261	15
3	193	23.58357022404	16
3	201	24.942965103995	17
3	213	26.667707692466	18
3	225	28.190412338446	19
3	239	29.734046927911	20
3	259	31.069020747425	21
3	271	32.067425058396	22
3	285	33.769378823528	23
3	293	35.025940481214	24
3	319	36.255001649624	25
3	335	37.627252234566	26
3	353	39.192562274437	27
3	387	40.934282268998	28
3	405	42.161742439716	29
3	417	43.729206674297	30
3	439	45.400431919135	31
3	447	46.308124138843	32
3	461	47.907986826205	33
3	469	49.696295222007	34
3	479	51.465287842901	35
3	487	53.265481799864	36
3	495	54.787539729122	37
3	513	56.674688015302	38
3	527	57.940798074401	39
3	535	59.42827815346	40
3	543	60.940615300335	41
3	573	63.09655320488	42
3	583	64.552861657006	43
3	591	66.348174324653	44
3	603	67.923607847826	45
3	617	69.672843494585	46
3	631	71.660430680968	47
3	643	72.894843954386	48
3	651	74.758821025673	49
3	661	76.3178005476	50
3	669	78.149014850668	51
3	679	79.822138156898	52
3	697	81.589072146274	53
3	713	82.949445664046	54
3	723	84.572695919406	55
3	739	85.931085254431	56
3	747	87.192057710061	57
3	757	88.870665419572	58
3	765	89.869164209906	59
3	773	91.716805354977	60
3	783	93.162503190071	61
3	807	95.032275970355	62
3	815	96.193363424546	63
3	825	98.057789311424	64
3	837	100.058229968678	65
3	849	101.235271298977	66
3	863	102.607825079975	67
3	875	104.367387252279	68
3	883	105.390807141468	69
3	893	106.589350192222	70
3	903	107.823733752179	71
3	923	109.898021465865	72
3	931	111.55067568073	73
3	941	112.757810180089	74
3	951	114.242829863093	75
3	965	115.708937045423	76
3	975	116.796080471034	77
3	1009	118.919825898312	78
3	1019	120.396251425794	79
3	1033	121.561432409281	80
3	1055	122.68787769823	81
3	1065	123.751286738347	82
3	1087	125.661611700625	83
3	1095	126.973954465961	84
3	1111	128.463198374203	85
3	1119	129.804173197544	86
3	1143	131.767930150066	87
3	1153	132.781199662075	88
3	1163	134.189154354425	89
3	1177	135.832544682285	90
3	1187	136.791992259311	91
3	1195	137.891231380798	92
3	1203	139.197939578993	93
3	1219	140.565211022885	94
3	1227	141.689098229375	95
3	1245	143.253653063302	96
3	1273	144.827434239197	97
3	1285	146.389605779458	98
3	1305	148.222225684797	99
3	1321	150.075040971454	100
3	1329	151.029696758407	101
3	1351	152.677663037115	102
3	1361	154.042377115868	103
3	1369	155.483227600942	104
3	1377	156.931848747287	105
3	1395	158.866139348955	106
3	1403	160.737490494978	107
3	1423	162.106733087038	108
3	1435	163.606823049144	109
3	1455	165.185953771429	110
3	1467	166.26236558719	111
3	1477	168.163944246924	112
3	1493	169.633100593087	113
3	1531	171.132426353338	114
3	1551	172.881424273094	115
3	1569	173.90385920206	116
3	1581	175.653742029135	117
3	1597	177.224639064432	118
3	1607	178.72808269589	119
3	1625	180.404096058634	120
3	1633	182.08797580474	121
3	1653	184.182561253406	122
3	1663	185.194889725548	123
3	1675	186.242971498745	124
3	1683	187.373560737395	125
3	1715	189.549512447801	126
3	1731	190.559284128453	127
3	1739	192.433368198911	128
3	1747	194.033917479574	129
3	1755	195.689045401961	130
3	1763	197.691282769548	131
3	1771	199.02184335808	132
3	1791	200.55389226626	133
3	1799	201.919072207554	134
3	1809	203.509671816412	135
3	1827	205.016503671772	136
3	1837	206.806646950679	137
3	1851	208.465352812908	138
3	1865	209.674913494191	139
3	1875	211.028478146361	140
3	1883	212.957984727245	141
3	1893	214.283487233808	142
3	1907	215.925634543472	143
3	1925	217.814157646804	144
3	1939	219.482053605996	145
3	1949	220.922969559578	146
3	1959	222.428398524144	147
3	1967	223.817041296007	148
3	1977	225.778583332669	149
3	2001	227.347573831493	150
3	2011	228.714796351966	151
3	2027	230.070844403266	152
3	2043	231.584382229218	153
3	2067	233.039941903257	154
3	2089	234.5616985497	155
3	2101	235.594853446258	156
3	2109	237.235883908639	157
3	2131	239.382532425936	158
4	8	0.22665893968	0
4	22	2.194991916675	1
4	32	3.58683505578	2
4	46	5.039260577604	3
4	54	6.926591965129	4
4	68	8.077461545341	5
4	80	9.369156570989	6
4	92	10.624188078892	7
4	100	12.018303590676	8
4	114	13.561372664627	9
4	132	15.314039718339	10
4	140	16.886552368691	11
4	150	18.496190128913	12
4	158	19.661918674002	13
4	166	21.113250014704	14
4	182	22.347618542261	15
4	194	23.59357022404	16
4	202	24.952965103995	17
4	214	26.677707692466	18
4	226	28.200412338446	19
4	240	29.744046927911	20
4	260	31.079020747425	21
4	272	32.077425058396	22
4	286	33.779378823528	23
4	294	35.035940481214	24
4	320	36.265001649624	25
4	336	37.637252234566	26
4	354	39.202562274437	27
4	388	40.944282268998	28
4	406	42.171742439716	29
4	418	43.739206674297	30
4	440	45.410431919135	31
4	448	46.318124138843	32
4	462	47.917986826205	33
4	470	49.706295222007	34
4	480	51.475287842901	35
4	488	53.275481799864	36
4	496	54.797539729122	37
4	514	56.684688015302	38
4	528	57.950798074401	39
4	536	59.43827815346	40
4	544	60.950615300335	41
4	574	63.10655320488	42
4	584	64.562861657006	43
4	592	66.358174324653	44
4	604	67.933607847826	45
4	618	69.682843494585	46
4	632	71.670430680968	47
4	644	72.904843954386	48
4	652	74.768821025673	49
4	662	76.3278005476	50
4	670	78.159014850668	51
4	680	79.832138156898	52
4	698	81.599072146274	53
4	714	82.959445664046	54
4	724	84.582695919406	55
4	740	85.941085254431	56
4	748	87.202057710061	57
4	758	88.880665419572	58
4	766	89.879164209906	59
4	774	91.726805354977	60
4	784	93.172503190071	61
4	808	95.042275970355	62
4	816	96.203363424546	63
4	826	98.067789311424	64
4	838	100.068229968678	65
4	850	101.245271298977	66
4	864	102.617825079975	67
4	876	104.377387252279	68
4	884	105.400807141468	69
4	894	106.599350192222	70
4	904	107.833733752179	71
4	924	109.908021465865	72
4	932	111.56067568073	73
4	942	112.767810180089	74
4	952	114.252829863093	75
4	966	115.718937045423	76
4	976	116.806080471034	77
4	1010	118.929825898312	78
4	1020	120.406251425794	79
4	1034	121.571432409281	80
4	1056	122.69787769823	81
4	1066	123.761286738347	82
4	1088	125.671611700625	83
4	1096	126.983954465961	84
4	1112	128.473198374203	85
4	1120	129.814173197544	86
4	1144	131.777930150066	87
4	1154	132.791199662075	88
4	1164	134.199154354425	89
4	1178	135.842544682285	90
4	1188	136.801992259311	91
4	1196	137.901231380798	92
4	1204	139.207939578993	93
4	1220	140.575211022885	94
4	1228	141.699098229375	95
4	1246	143.263653063302	96
4	1274	144.837434239197	97
4	1286	146.399605779458	98
4	1306	148.232225684797	99
4	1322	150.085040971454	100
4	1330	151.039696758407	101
4	1352	152.687663037115	102
4	1362	154.052377115868	103
4	1370	155.493227600942	104
4	1378	156.941848747287	105
4	1396	158.876139348955	106
4	1404	160.747490494978	107
4	1424	162.116733087038	108
4	1436	163.616823049144	109
4	1456	165.195953771429	110
4	1468	166.27236558719	111
4	1478	168.173944246924	112
4	1494	169.643100593087	113
4	1532	171.142426353338	114
4	1552	172.891424273094	115
4	1570	173.91385920206	116
4	1582	175.663742029135	117
4	1598	177.234639064432	118
4	1608	178.73808269589	119
4	1626	180.414096058634	120
4	1634	182.09797580474	121
4	1654	184.192561253406	122
4	1664	185.204889725548	123
4	1676	186.252971498745	124
4	1684	187.383560737395	125
4	1716	189.559512447801	126
4	1732	190.569284128453	127
4	1740	192.443368198911	128
4	1748	194.043917479574	129
4	1756	195.699045401961	130
4	1764	197.701282769548	131
4	1772	199.03184335808	132
4	1792	200.56389226626	133
4	1800	201.929072207554	134
4	1810	203.519671816412	135
4	1828	205.026503671772	136
4	1838	206.816646950679	137
4	1852	208.475352812908	138
4	1866	209.684913494191	139
4	1876	211.038478146361	140
4	1884	212.967984727245	141
4	1894	214.293487233808	142
4	1908	215.935634543472	143
4	1926	217.824157646804	144
4	1940	219.492053605996	145
4	1950	220.932969559578	146
4	1960	222.438398524144	147
4	1968	223.827041296007	148
4	1978	225.788583332669	149
4	2002	227.357573831493	150
4	2012	228.724796351966	151
4	2028	230.080844403266	152
4	2044	231.594382229218	153
4	2068	233.049941903257	154
4	2090	234.5716985497	155
4	2102	235.604853446258	156
4	2110	237.245883908639	157
4	2132	239.392532425936	158
5	13	2.125237518997	0
5	27	3.515031507856	1
5	59	8.000109811636	2
5	105	13.43912736917	3
5	109	13.487434871359	4
5	119	15.190457759316	5
5	173	22.247721743754	6
5	207	26.5612062289	7
5	221	28.155628458303	8
5	231	29.653518966008	9
5	235	29.706347483282	10
5	249	30.949389821027	11
5	253	31.003860927579	12
5	281	33.737209019968	13
5	303	36.058381265359	14
5	307	36.107582056713	15
5	311	36.173572845786	16
5	343	39.085290324146	17
5	347	39.136788786018	18
5	359	40.662697797068	19
5	363	40.696406635069	20
5	371	40.782011759191	21
5	375	40.813046169847	22
5	379	40.872002164943	23
5	383	40.907819028187	24
5	397	42.095270197865	25
5	401	42.129005872035	26
5	431	45.345885676461	27
5	453	47.832489073906	28
5	475	51.437261542017	29
5	501	56.583914977566	30
5	505	56.613746455959	31
5	519	57.87930151348	32
5	523	57.9005093681	33
5	549	62.89270678891	34
5	553	62.920148266469	35
5	557	62.957634984091	36
5	565	63.020460674708	37
5	569	63.059416106	38
5	579	64.519867767579	39
5	609	69.576868332245	40
5	613	69.632438936083	41
5	625	71.598375068875	42
5	657	76.252338309705	43
5	675	79.78149737782	44
5	685	81.395561081964	45
5	689	81.439397871814	46
5	693	81.522725981314	47
5	703	82.803906696279	48
5	707	82.891994234962	49
5	719	84.537780429867	50
5	731	85.879227840296	51
5	793	94.901107128116	52
5	801	94.979923511431	53
5	821	98.02862360888	54
5	843	101.165712383942	55
5	857	102.542623009426	56
5	871	104.337894938146	57
5	913	109.79311064226	58
5	947	114.20593455273	59
5	959	115.656945716908	60
5	989	118.730220182999	61
5	993	118.761197344387	62
5	997	118.801589304141	63
5	1001	118.843721473127	64
5	1025	121.487811807737	65
5	1043	122.581866033122	66
5	1061	123.682945196043	67
5	1105	128.42107875778	68
5	1133	131.689527183676	69
5	1137	131.717779004498	70
5	1169	135.768391138647	71
5	1173	135.806184412107	72
5	1209	140.490840528583	73
5	1213	140.521241185419	74
5	1233	143.137982816863	75
5	1237	143.192038006206	76
5	1241	143.214613893647	77
5	1251	144.535670027156	78
5	1255	144.57246118897	79
5	1263	144.648801368245	80
5	1291	148.081362363217	81
5	1295	148.116318636856	82
5	1317	150.011832063968	83
5	1339	152.5665074904	84
5	1343	152.60310311374	85
5	1347	152.642004012852	86
5	1357	154.020838471536	87
5	1389	158.810152853494	88
5	1409	161.97338191569	89
5	1413	162.029112522806	90
5	1417	162.058691770314	91
5	1443	165.081550074163	92
5	1447	165.107461012685	93
5	1473	168.131012272743	94
5	1485	169.554397827912	95
5	1489	169.582719804785	96
5	1501	170.866690795998	97
5	1509	170.933088140662	98
5	1513	170.960448243039	99
5	1517	170.994696592553	100
5	1521	171.041686891063	101
5	1525	171.073861650297	102
5	1537	172.75092954204	103
5	1541	172.799439331986	104
5	1545	172.828006448395	105
5	1557	173.781143983322	106
5	1561	173.809186979116	107
5	1575	175.592407859705	108
5	1587	177.087585846526	109
5	1591	177.135341428369	110
5	1603	178.701422448718	111
5	1619	180.326511973812	112
5	1695	189.396728866032	113
5	1699	189.419250289394	114
5	1703	189.448400433768	115
5	1711	189.518584619038	116
5	1723	190.496328461284	117
5	1727	190.531442989808	118
5	1777	200.395992346601	119
5	1785	200.466976998231	120
5	1815	204.936441390544	121
5	1819	204.958677899565	122
5	1833	206.771612444129	123
5	1843	208.396867270442	124
5	1857	209.547540091836	125
5	1861	209.62424201279	126
5	1889	214.239120089686	127
5	1899	215.846353677565	128
5	1903	215.870705689884	129
5	1913	217.637822360008	130
5	1917	217.702060285487	131
5	1955	222.400625445278	132
5	1973	225.719602752808	133
5	1985	227.137136816969	134
5	1989	227.164152481872	135
5	1993	227.21636319203	136
5	1997	227.241465024885	137
5	2007	228.662038857512	138
5	2019	230.022798351815	139
5	2035	231.515246464103	140
5	2039	231.55135079889	141
5	2051	232.869213156247	142
5	2055	232.920099767388	143
5	2063	232.99082644258	144
5	2073	234.391467319991	145
5	2081	234.49459166272	146
5	2085	234.534170182487	147
5	2119	239.264820022601	148
5	2123	239.324110073036	149
5	2127	239.353851043259	150
6	15	2.138995710924	0
6	19	2.163891113489	1
6	29	3.559533778729	2
6	37	4.955612308004	3
6	41	4.992181335234	4
6	51	6.861618858445	5
6	61	8.011120976523	6
6	65	8.032589091394	7
6	75	9.308132036917	8
6	87	10.570513571041	9
6	97	11.993820996722	10
6	107	13.463028081504	11
6	111	13.520057580309	12
6	121	15.206434531872	13
6	125	15.257584907585	14
6	129	15.292380001004	15
6	147	18.449219699148	16
6	163	21.090423585867	17
6	171	22.234448034431	18
6	175	22.26616299476	19
6	179	22.311162439549	20
6	187	23.524138662026	21
6	191	23.572433002232	22
6	209	26.599127891752	23
6	219	28.145440949273	24
6	223	28.166033381937	25
6	233	29.671525136723	26
6	237	29.719425236695	27
6	247	30.937240122049	28
6	251	30.967983827488	29
6	255	31.017784207871	30
6	265	32.013962392562	31
6	269	32.047164945266	32
6	279	33.722185807515	33
6	283	33.747563713882	34
6	301	36.045617283781	35
6	305	36.091961430734	36
6	309	36.133606857867	37
6	313	36.183729397577	38
6	317	36.222662781217	39
6	325	37.516567227841	40
6	329	37.548092517141	41
6	333	37.614312513133	42
6	341	39.071927533713	43
6	345	39.107247378076	44
6	349	39.162366725277	45
6	361	40.680940815838	46
6	365	40.708620210145	47
6	369	40.74469772169	48
6	373	40.802880172031	49
6	377	40.842349349393	50
6	381	40.890499906332	51
6	385	40.91801410616	52
6	395	42.065238750929	53
6	399	42.116930972682	54
6	403	42.145295959844	55
6	413	43.696470528259	56
6	425	45.302334106531	57
6	429	45.333433072878	58
6	433	45.365609162354	59
6	437	45.388868983817	60
6	445	46.293783620751	61
6	455	47.84352872661	62
6	459	47.88580154304	63
6	477	51.450831839764	64
6	503	56.600600974525	65
6	507	56.626026838894	66
6	511	56.662450643512	67
6	521	57.889581455699	68
6	525	57.915306128663	69
6	533	59.416857566891	70
6	551	62.906899196226	71
6	555	62.947521539865	72
6	559	62.968451281838	73
6	563	63.005981893051	74
6	567	63.044519993069	75
6	571	63.07543829587	76
6	581	64.531210414213	77
6	589	66.32227959227	78
6	599	67.870701143262	79
6	611	69.603613996039	80
6	615	69.659536446529	81
6	623	71.583809221918	82
6	627	71.608833797295	83
6	639	72.861573035409	84
6	659	76.289200381757	85
6	667	78.137376051668	86
6	677	79.803599853352	87
6	687	81.420640659377	88
6	691	81.506699416829	89
6	695	81.570018442195	90
6	705	82.850936492801	91
6	709	82.916581804888	92
6	721	84.556581999993	93
6	729	85.863011756497	94
6	733	85.896649032752	95
6	737	85.920902892123	96
6	753	88.839221412575	97
6	781	93.133949390596	98
6	791	94.889569573281	99
6	795	94.924347574866	100
6	799	94.967287731402	101
6	803	94.999131629799	102
6	823	98.043802143229	103
6	831	100.007246610256	104
6	835	100.044727550579	105
6	845	101.189540283709	106
6	855	102.531830533746	107
6	859	102.561029143683	108
6	869	104.32743611823	109
6	873	104.34861415217	110
6	889	106.561846188972	111
6	901	107.80625108286	112
6	911	109.782472293724	113
6	915	109.818022598671	114
6	919	109.85215559989	115
6	929	111.536758009164	116
6	937	112.728475222554	117
6	949	114.22215205822	118
6	957	115.603439161073	119
6	961	115.67383837663	120
6	971	116.737980014833	121
6	983	118.660307053579	122
6	987	118.717266464784	123
6	991	118.74975472993	124
6	995	118.784825515569	125
6	999	118.822218261663	126
6	1003	118.858608831067	127
6	1007	118.90873377954	128
6	1015	120.360416828655	129
6	1027	121.499363230644	130
6	1031	121.546208115788	131
6	1041	122.562201062191	132
6	1045	122.596907897155	133
6	1049	122.620977063598	134
6	1053	122.658141780504	135
6	1063	123.715793143626	136
6	1073	125.532660119624	137
6	1077	125.571273341961	138
6	1081	125.616564381028	139
6	1085	125.645032015688	140
6	1103	128.396146553944	141
6	1107	128.437293334119	142
6	1117	129.787270032493	143
6	1127	131.610770996313	144
6	1131	131.649904368295	145
6	1135	131.699539011382	146
6	1139	131.733365822469	147
6	1149	132.730334911083	148
6	1161	134.174396863914	149
6	1171	135.785849646888	150
6	1175	135.816855130556	151
6	1183	136.739877323631	152
6	1201	139.171060815578	153
6	1211	140.50685234071	154
6	1215	140.538070047145	155
6	1235	143.148243725958	156
6	1239	143.204587985237	157
6	1243	143.226164152538	158
6	1253	144.557375256807	159
6	1257	144.61133157675	160
6	1261	144.63759328315	161
6	1265	144.673107561803	162
6	1269	144.750658024916	163
6	1281	146.358878957357	164
6	1293	148.095188608397	165
6	1297	148.173972254524	166
6	1301	148.19990395533	167
6	1311	149.971076367638	168
6	1315	149.998096716691	169
6	1319	150.050147628083	170
6	1327	151.015813203282	171
6	1337	152.540840969273	172
6	1341	152.5786569677	173
6	1345	152.622394765771	174
6	1349	152.661610592425	175
6	1359	154.031722729875	176
6	1383	158.760685000302	177
6	1387	158.788625820069	178
6	1391	158.827186769297	179
6	1401	160.726092002807	180
6	1411	162.013636486784	181
6	1415	162.04641798486	182
6	1419	162.078495480787	183
6	1431	163.571338480946	184
6	1441	165.06730849872	185
6	1445	165.096851007891	186
6	1449	165.133209976565	187
6	1453	165.170253541396	188
6	1463	166.237611679791	189
6	1475	168.143245984926	190
6	1483	169.540925258191	191
6	1487	169.566655755541	192
6	1491	169.619458009732	193
6	1499	170.851133820686	194
6	1503	170.890677326378	195
6	1507	170.91289179302	196
6	1511	170.949043578045	197
6	1515	170.98239337098	198
6	1519	171.019001248	199
6	1523	171.054349602949	200
6	1527	171.087726582255	201
6	1539	172.77811908482	202
6	1543	172.816194565232	203
6	1547	172.84419802205	204
6	1559	173.796946445855	205
6	1563	173.845569119341	206
6	1567	173.889856746114	207
6	1577	175.616305348253	208
6	1589	177.123137046496	209
6	1593	177.146968780548	210
6	1605	178.712739708741	211
6	1613	180.248715366808	212
6	1617	180.29234254327	213
6	1621	180.347814823511	214
6	1631	182.069219365649	215
6	1641	184.049149766295	216
6	1645	184.090691297454	217
6	1649	184.154350308373	218
6	1661	185.182771769392	219
6	1671	186.205843243428	220
6	1681	187.357960663428	221
6	1689	189.33842528086	222
6	1693	189.375385114838	223
6	1697	189.407327824792	224
6	1701	189.43363432586	225
6	1705	189.466307032596	226
6	1709	189.50551728023	227
6	1713	189.536285055047	228
6	1721	190.475969877651	229
6	1725	190.516267816666	230
6	1729	190.545213173127	231
6	1753	195.676678415116	232
6	1761	197.677246162773	233
6	1779	200.414517197524	234
6	1783	200.44967304289	235
6	1787	200.513816470635	236
6	1797	201.908295495064	237
6	1805	203.439292890777	238
6	1817	204.947682271376	239
6	1821	204.973532657022	240
6	1825	205.003575534477	241
6	1835	206.781906384016	242
6	1845	208.419002522334	243
6	1849	208.45131445601	244
6	1859	209.561608898971	245
6	1863	209.641725480574	246
6	1873	211.015010838774	247
6	1891	214.254892211484	248
6	1901	215.857356220276	249
6	1905	215.890059189471	250
6	1915	217.6861841518	251
6	1919	217.746619750313	252
6	1923	217.783496489097	253
6	1933	219.423403075727	254
6	1937	219.449812544535	255
6	1947	220.908903599137	256
6	1957	222.414985632025	257
6	1965	223.779591060907	258
6	1975	225.739137518437	259
6	1983	227.125591428632	260
6	1987	227.148463699452	261
6	1991	227.200105802729	262
6	1995	227.226498585661	263
6	1999	227.291637998443	264
6	2009	228.682855268412	265
6	2017	229.994116956216	266
6	2021	230.034518482502	267
6	2025	230.055701348769	268
6	2033	231.501788919499	269
6	2037	231.537343432028	270
6	2041	231.572861767057	271
6	2049	232.854636246639	272
6	2053	232.895611350799	273
6	2057	232.946590855376	274
6	2061	232.978824833555	275
6	2065	233.012312040267	276
6	2075	234.415012933228	277
6	2079	234.483719357377	278
6	2083	234.509680653615	279
6	2087	234.550557744358	280
6	2097	235.553767580507	281
6	2117	239.226515596059	282
6	2121	239.295574370365	283
6	2125	239.339319728003	284
6	2129	239.371639849087	285

