version 2
run General-1-20230921-21:38:13-5979
attr configname General
attr datetime 20230921-21:38:13
attr experiment General
attr inifile omnetpp.ini
attr iterationvars ""
attr iterationvarsf ""
attr measurement ""
attr network Network2
attr processid 5979
attr repetition 1
attr replication #1
attr resultdir results
attr runnumber 1
attr seedset 1
param Network2.node[*].transmissionTime "uniform(1s, 2s)"
param Network2.node[*].delayTime "uniform(0.01s, 0.2s)"
param Network2.node[*].processingTime exponential(0.01s)
param Network2.node[*].lossProbability 0.0

vector 0 Network2.node[0] txVector ETV
vector 1 Network2.node[1] txVector ETV
vector 2 Network2.node[6] txVector ETV
vector 3 Network2.node[3] txVector ETV
vector 4 Network2.node[2] txVector ETV
vector 5 Network2.node[4] txVector ETV
vector 6 Network2.node[5] rxVector ETV
0	1	0.089234179703	0
0	24	2.086418987836	1
0	47	3.290871236825	2
0	70	4.809023785058	3
0	93	6.124539418963	4
0	116	7.220711677919	5
0	139	8.810017215206	6
0	162	10.693142686856	7
0	185	12.316814893044	8
0	208	13.672125256273	9
0	231	15.580660401729	10
0	254	17.088907939267	11
0	277	18.93093883258	12
0	300	20.682811801906	13
0	323	21.75478608499	14
0	346	22.959144209164	15
0	369	24.339285384982	16
0	392	25.434593196611	17
0	415	26.448544767105	18
0	438	27.900546373685	19
0	461	28.915565353471	20
0	484	30.345533250018	21
0	507	31.923390466838	22
0	530	33.005645375118	23
0	553	34.328326375807	24
0	576	35.602226700751	25
0	599	37.174715221511	26
0	622	38.455932112993	27
0	645	40.365567639121	28
0	668	41.68479143118	29
0	691	43.47008746129	30
0	714	45.193452213076	31
0	737	46.639598443057	32
0	760	48.448675683584	33
0	783	49.890579961823	34
0	806	51.193451282685	35
0	829	52.902838535491	36
0	852	54.638570653159	37
0	875	55.66635399533	38
0	898	57.320043750922	39
0	921	58.477773816441	40
0	944	60.367148564779	41
0	967	61.800740894978	42
0	990	63.067828445579	43
0	1013	64.99968955887	44
0	1036	66.166503377375	45
0	1059	67.737219224335	46
0	1082	69.05706813524	47
0	1105	70.787159342668	48
0	1128	72.040433616727	49
0	1151	73.712903459207	50
0	1174	74.961164684151	51
0	1197	76.314699552837	52
0	1220	77.499454973848	53
0	1243	78.934760931763	54
0	1266	80.27882612159	55
0	1289	81.704387507518	56
0	1312	83.28083614388	57
0	1335	84.853241255856	58
0	1358	86.114505462465	59
0	1381	87.972402566229	60
0	1404	89.677286871825	61
0	1427	91.291157954721	62
0	1450	92.997525509097	63
0	1473	94.495581134105	64
0	1496	96.352505249087	65
0	1519	97.608250443008	66
0	1542	99.144634571741	67
0	1565	100.840398791595	68
0	1588	101.986723561189	69
0	1611	103.255373688298	70
0	1634	104.732621335075	71
0	1657	105.877219058922	72
0	1680	107.03402925271	73
0	1703	108.195540018263	74
0	1726	110.009274261421	75
0	1749	111.608544023591	76
0	1772	113.193481780472	77
0	1795	114.719151224126	78
0	1818	116.640098437085	79
0	1841	117.671195510891	80
0	1864	119.038558103493	81
0	1887	120.064311586204	82
0	1910	121.826817283989	83
0	1933	122.940613641054	84
0	1956	124.240519487415	85
0	1979	125.460648158681	86
0	2002	127.184679973521	87
0	2025	129.074507315759	88
0	2048	130.239230071078	89
0	2071	131.693289126386	90
0	2094	133.203616850893	91
0	2117	134.548478197656	92
0	2140	136.019294215017	93
0	2163	137.08372446883	94
0	2186	138.49921014288	95
0	2209	140.094835244934	96
0	2232	141.274043851648	97
0	2255	142.310112170293	98
0	2278	144.031455230317	99
0	2301	145.783095633029	100
0	2324	146.925273497007	101
0	2347	148.040308508207	102
0	2370	149.524534081458	103
0	2393	150.829528055969	104
0	2416	152.304182225489	105
0	2439	153.684418723336	106
0	2462	154.876767971669	107
0	2485	156.562524869223	108
0	2508	158.26782947022	109
0	2531	159.522267578752	110
0	2554	161.331831252319	111
0	2577	162.576097915066	112
0	2600	163.931032563211	113
0	2623	165.468039682252	114
0	2646	166.782136182418	115
0	2669	167.949578038534	116
0	2692	169.438625852927	117
0	2715	171.035514377873	118
0	2738	172.57077542774	119
0	2761	174.543495780207	120
0	2784	175.82867370674	121
0	2807	177.625232290128	122
0	2830	178.858827993856	123
0	2853	180.718894760474	124
0	2876	181.902574213571	125
0	2899	183.128381139017	126
0	2922	184.597347065457	127
0	2945	186.460573551128	128
0	2968	187.738559703458	129
0	2991	189.676588240195	130
0	3014	191.235419936826	131
0	3037	193.04216675402	132
0	3060	194.542387662803	133
0	3083	196.216886506763	134
0	3106	198.100983763694	135
0	3129	199.908762623671	136
0	3152	201.287308437399	137
0	3175	202.855460978927	138
0	3198	204.119950769585	139
0	3221	206.060964032425	140
0	3244	208.009902822202	141
0	3267	209.670360547606	142
0	3290	211.241749093518	143
0	3313	213.136688618804	144
0	3336	214.583070858963	145
0	3359	216.333524412126	146
0	3382	217.697308291099	147
0	3405	219.67354655487	148
0	3428	221.208777697873	149
0	3451	222.291967581142	150
0	3474	224.031294558313	151
0	3497	225.464984301128	152
0	3520	226.876918951165	153
0	3543	228.272269423235	154
0	3566	229.606812595738	155
0	3589	231.161331088863	156
0	3612	232.734405246911	157
0	3635	233.74599483807	158
0	3658	234.867098634014	159
0	3681	236.780942509998	160
0	3704	238.018631925922	161
0	3727	239.169321915483	162
1	3	0.126198958082	0
1	3	0.126198958082	1
1	3	0.126198958082	2
1	3	0.126198958082	3
1	26	2.117465960799	4
1	26	2.117465960799	5
1	26	2.117465960799	6
1	26	2.117465960799	7
1	49	3.320897541596	8
1	49	3.320897541596	9
1	49	3.320897541596	10
1	49	3.320897541596	11
1	72	4.830623373741	12
1	72	4.830623373741	13
1	72	4.830623373741	14
1	72	4.830623373741	15
1	95	6.157908096962	16
1	95	6.157908096962	17
1	95	6.157908096962	18
1	95	6.157908096962	19
1	118	7.24274335459	20
1	118	7.24274335459	21
1	118	7.24274335459	22
1	118	7.24274335459	23
1	141	8.827799652398	24
1	141	8.827799652398	25
1	141	8.827799652398	26
1	141	8.827799652398	27
1	164	10.71704339919	28
1	164	10.71704339919	29
1	164	10.71704339919	30
1	164	10.71704339919	31
1	187	12.355259942723	32
1	187	12.355259942723	33
1	187	12.355259942723	34
1	187	12.355259942723	35
1	210	13.691889913928	36
1	210	13.691889913928	37
1	210	13.691889913928	38
1	210	13.691889913928	39
1	233	15.592999518786	40
1	233	15.592999518786	41
1	233	15.592999518786	42
1	233	15.592999518786	43
1	256	17.100233809849	44
1	256	17.100233809849	45
1	256	17.100233809849	46
1	256	17.100233809849	47
1	279	18.946521720384	48
1	279	18.946521720384	49
1	279	18.946521720384	50
1	279	18.946521720384	51
1	302	20.727008367893	52
1	302	20.727008367893	53
1	302	20.727008367893	54
1	302	20.727008367893	55
1	325	21.804825623263	56
1	325	21.804825623263	57
1	325	21.804825623263	58
1	325	21.804825623263	59
1	348	22.977150379879	60
1	348	22.977150379879	61
1	348	22.977150379879	62
1	348	22.977150379879	63
1	371	24.350831627981	64
1	371	24.350831627981	65
1	371	24.350831627981	66
1	371	24.350831627981	67
1	394	25.447263655796	68
1	394	25.447263655796	69
1	394	25.447263655796	70
1	394	25.447263655796	71
1	417	26.475065024678	72
1	417	26.475065024678	73
1	417	26.475065024678	74
1	417	26.475065024678	75
1	440	27.91248460326	76
1	440	27.91248460326	77
1	440	27.91248460326	78
1	440	27.91248460326	79
1	463	28.929816245207	80
1	463	28.929816245207	81
1	463	28.929816245207	82
1	463	28.929816245207	83
1	486	30.357566784324	84
1	486	30.357566784324	85
1	486	30.357566784324	86
1	486	30.357566784324	87
1	509	31.935107321999	88
1	509	31.935107321999	89
1	509	31.935107321999	90
1	509	31.935107321999	91
1	532	33.026755932734	92
1	532	33.026755932734	93
1	532	33.026755932734	94
1	532	33.026755932734	95
1	555	34.338426876412	96
1	555	34.338426876412	97
1	555	34.338426876412	98
1	555	34.338426876412	99
1	578	35.62543710664	100
1	578	35.62543710664	101
1	578	35.62543710664	102
1	578	35.62543710664	103
1	601	37.204746668447	104
1	601	37.204746668447	105
1	601	37.204746668447	106
1	601	37.204746668447	107
1	624	38.468904297626	108
1	624	38.468904297626	109
1	624	38.468904297626	110
1	624	38.468904297626	111
1	647	40.397687509863	112
1	647	40.397687509863	113
1	647	40.397687509863	114
1	647	40.397687509863	115
1	670	41.695017266433	116
1	670	41.695017266433	117
1	670	41.695017266433	118
1	670	41.695017266433	119
1	693	43.494327506682	120
1	693	43.494327506682	121
1	693	43.494327506682	122
1	693	43.494327506682	123
1	716	45.218719251368	124
1	716	45.218719251368	125
1	716	45.218719251368	126
1	716	45.218719251368	127
1	739	46.655726119953	128
1	739	46.655726119953	129
1	739	46.655726119953	130
1	739	46.655726119953	131
1	762	48.467388317341	132
1	762	48.467388317341	133
1	762	48.467388317341	134
1	762	48.467388317341	135
1	785	49.907293961587	136
1	785	49.907293961587	137
1	785	49.907293961587	138
1	785	49.907293961587	139
1	808	51.209706195712	140
1	808	51.209706195712	141
1	808	51.209706195712	142
1	808	51.209706195712	143
1	831	52.936877733639	144
1	831	52.936877733639	145
1	831	52.936877733639	146
1	831	52.936877733639	147
1	854	54.66262997152	148
1	854	54.66262997152	149
1	854	54.66262997152	150
1	854	54.66262997152	151
1	877	55.67673545881	152
1	877	55.67673545881	153
1	877	55.67673545881	154
1	877	55.67673545881	155
1	900	57.332121765251	156
1	900	57.332121765251	157
1	900	57.332121765251	158
1	900	57.332121765251	159
1	923	58.508529129678	160
1	923	58.508529129678	161
1	923	58.508529129678	162
1	923	58.508529129678	163
1	946	60.384328963211	164
1	946	60.384328963211	165
1	946	60.384328963211	166
1	946	60.384328963211	167
1	969	61.831972193883	168
1	969	61.831972193883	169
1	969	61.831972193883	170
1	969	61.831972193883	171
1	992	63.105453780696	172
1	992	63.105453780696	173
1	992	63.105453780696	174
1	992	63.105453780696	175
1	1015	65.015477114413	176
1	1015	65.015477114413	177
1	1015	65.015477114413	178
1	1015	65.015477114413	179
1	1038	66.23380492239	180
1	1038	66.23380492239	181
1	1038	66.23380492239	182
1	1038	66.23380492239	183
1	1061	67.756494763723	184
1	1061	67.756494763723	185
1	1061	67.756494763723	186
1	1061	67.756494763723	187
1	1084	69.073391071048	188
1	1084	69.073391071048	189
1	1084	69.073391071048	190
1	1084	69.073391071048	191
1	1107	70.817577922769	192
1	1107	70.817577922769	193
1	1107	70.817577922769	194
1	1107	70.817577922769	195
1	1130	72.062043012454	196
1	1130	72.062043012454	197
1	1130	72.062043012454	198
1	1130	72.062043012454	199
1	1153	73.728398530024	200
1	1153	73.728398530024	201
1	1153	73.728398530024	202
1	1153	73.728398530024	203
1	1176	74.973568766881	204
1	1176	74.973568766881	205
1	1176	74.973568766881	206
1	1176	74.973568766881	207
1	1199	76.350044389474	208
1	1199	76.350044389474	209
1	1199	76.350044389474	210
1	1199	76.350044389474	211
1	1222	77.535153897894	212
1	1222	77.535153897894	213
1	1222	77.535153897894	214
1	1222	77.535153897894	215
1	1245	78.945247205051	216
1	1245	78.945247205051	217
1	1245	78.945247205051	218
1	1245	78.945247205051	219
1	1268	80.304067067359	220
1	1268	80.304067067359	221
1	1268	80.304067067359	222
1	1268	80.304067067359	223
1	1291	81.716637293209	224
1	1291	81.716637293209	225
1	1291	81.716637293209	226
1	1291	81.716637293209	227
1	1314	83.291294963796	228
1	1314	83.291294963796	229
1	1314	83.291294963796	230
1	1314	83.291294963796	231
1	1337	84.903446020773	232
1	1337	84.903446020773	233
1	1337	84.903446020773	234
1	1337	84.903446020773	235
1	1360	86.137556325751	236
1	1360	86.137556325751	237
1	1360	86.137556325751	238
1	1360	86.137556325751	239
1	1383	87.986837260779	240
1	1383	87.986837260779	241
1	1383	87.986837260779	242
1	1383	87.986837260779	243
1	1406	89.691204543391	244
1	1406	89.691204543391	245
1	1406	89.691204543391	246
1	1406	89.691204543391	247
1	1429	91.309155021996	248
1	1429	91.309155021996	249
1	1429	91.309155021996	250
1	1429	91.309155021996	251
1	1452	93.026034226122	252
1	1452	93.026034226122	253
1	1452	93.026034226122	254
1	1452	93.026034226122	255
1	1475	94.517738191649	256
1	1475	94.517738191649	257
1	1475	94.517738191649	258
1	1475	94.517738191649	259
1	1498	96.378735016646	260
1	1498	96.378735016646	261
1	1498	96.378735016646	262
1	1498	96.378735016646	263
1	1521	97.640590449404	264
1	1521	97.640590449404	265
1	1521	97.640590449404	266
1	1521	97.640590449404	267
1	1544	99.169678527806	268
1	1544	99.169678527806	269
1	1544	99.169678527806	270
1	1544	99.169678527806	271
1	1567	100.85576199495	272
1	1567	100.85576199495	273
1	1567	100.85576199495	274
1	1567	100.85576199495	275
1	1590	102.013240650658	276
1	1590	102.013240650658	277
1	1590	102.013240650658	278
1	1590	102.013240650658	279
1	1613	103.271348995476	280
1	1613	103.271348995476	281
1	1613	103.271348995476	282
1	1613	103.271348995476	283
1	1636	104.755236323738	284
1	1636	104.755236323738	285
1	1636	104.755236323738	286
1	1636	104.755236323738	287
1	1659	105.892139366301	288
1	1659	105.892139366301	289
1	1659	105.892139366301	290
1	1659	105.892139366301	291
1	1682	107.048221455077	292
1	1682	107.048221455077	293
1	1682	107.048221455077	294
1	1682	107.048221455077	295
1	1705	108.218313509269	296
1	1705	108.218313509269	297
1	1705	108.218313509269	298
1	1705	108.218313509269	299
1	1728	110.038243454276	300
1	1728	110.038243454276	301
1	1728	110.038243454276	302
1	1728	110.038243454276	303
1	1751	111.642353107088	304
1	1751	111.642353107088	305
1	1751	111.642353107088	306
1	1751	111.642353107088	307
1	1774	113.203770826397	308
1	1774	113.203770826397	309
1	1774	113.203770826397	310
1	1774	113.203770826397	311
1	1797	114.740365077361	312
1	1797	114.740365077361	313
1	1797	114.740365077361	314
1	1797	114.740365077361	315
1	1820	116.658565518107	316
1	1820	116.658565518107	317
1	1820	116.658565518107	318
1	1820	116.658565518107	319
1	1843	117.694627823936	320
1	1843	117.694627823936	321
1	1843	117.694627823936	322
1	1843	117.694627823936	323
1	1866	119.051999272548	324
1	1866	119.051999272548	325
1	1866	119.051999272548	326
1	1866	119.051999272548	327
1	1889	120.076409006938	328
1	1889	120.076409006938	329
1	1889	120.076409006938	330
1	1889	120.076409006938	331
1	1912	121.847366758451	332
1	1912	121.847366758451	333
1	1912	121.847366758451	334
1	1912	121.847366758451	335
1	1935	122.970184937864	336
1	1935	122.970184937864	337
1	1935	122.970184937864	338
1	1935	122.970184937864	339
1	1958	124.261649515874	340
1	1958	124.261649515874	341
1	1958	124.261649515874	342
1	1958	124.261649515874	343
1	1981	125.474951825161	344
1	1981	125.474951825161	345
1	1981	125.474951825161	346
1	1981	125.474951825161	347
1	2004	127.208611460356	348
1	2004	127.208611460356	349
1	2004	127.208611460356	350
1	2004	127.208611460356	351
1	2027	129.088855907809	352
1	2027	129.088855907809	353
1	2027	129.088855907809	354
1	2027	129.088855907809	355
1	2050	130.24938530497	356
1	2050	130.24938530497	357
1	2050	130.24938530497	358
1	2050	130.24938530497	359
1	2073	131.708497644699	360
1	2073	131.708497644699	361
1	2073	131.708497644699	362
1	2073	131.708497644699	363
1	2096	133.236430050611	364
1	2096	133.236430050611	365
1	2096	133.236430050611	366
1	2096	133.236430050611	367
1	2119	134.561571245613	368
1	2119	134.561571245613	369
1	2119	134.561571245613	370
1	2119	134.561571245613	371
1	2142	136.052023028772	372
1	2142	136.052023028772	373
1	2142	136.052023028772	374
1	2142	136.052023028772	375
1	2165	137.097524814038	376
1	2165	137.097524814038	377
1	2165	137.097524814038	378
1	2165	137.097524814038	379
1	2188	138.518347714522	380
1	2188	138.518347714522	381
1	2188	138.518347714522	382
1	2188	138.518347714522	383
1	2211	140.115345925658	384
1	2211	140.115345925658	385
1	2211	140.115345925658	386
1	2211	140.115345925658	387
1	2234	141.286277563831	388
1	2234	141.286277563831	389
1	2234	141.286277563831	390
1	2234	141.286277563831	391
1	2257	142.34685037524	392
1	2257	142.34685037524	393
1	2257	142.34685037524	394
1	2257	142.34685037524	395
1	2280	144.042289709204	396
1	2280	144.042289709204	397
1	2280	144.042289709204	398
1	2280	144.042289709204	399
1	2303	145.805781276092	400
1	2303	145.805781276092	401
1	2303	145.805781276092	402
1	2303	145.805781276092	403
1	2326	146.93994807977	404
1	2326	146.93994807977	405
1	2326	146.93994807977	406
1	2326	146.93994807977	407
1	2349	148.070586139648	408
1	2349	148.070586139648	409
1	2349	148.070586139648	410
1	2349	148.070586139648	411
1	2372	149.555009294696	412
1	2372	149.555009294696	413
1	2372	149.555009294696	414
1	2372	149.555009294696	415
1	2395	150.840352512	416
1	2395	150.840352512	417
1	2395	150.840352512	418
1	2395	150.840352512	419
1	2418	152.363382229086	420
1	2418	152.363382229086	421
1	2418	152.363382229086	422
1	2418	152.363382229086	423
1	2441	153.69553014966	424
1	2441	153.69553014966	425
1	2441	153.69553014966	426
1	2441	153.69553014966	427
1	2464	154.891156268228	428
1	2464	154.891156268228	429
1	2464	154.891156268228	430
1	2464	154.891156268228	431
1	2487	156.573910417198	432
1	2487	156.573910417198	433
1	2487	156.573910417198	434
1	2487	156.573910417198	435
1	2510	158.299454790917	436
1	2510	158.299454790917	437
1	2510	158.299454790917	438
1	2510	158.299454790917	439
1	2533	159.548697087088	440
1	2533	159.548697087088	441
1	2533	159.548697087088	442
1	2533	159.548697087088	443
1	2556	161.342657914289	444
1	2556	161.342657914289	445
1	2556	161.342657914289	446
1	2556	161.342657914289	447
1	2579	162.598915391754	448
1	2579	162.598915391754	449
1	2579	162.598915391754	450
1	2579	162.598915391754	451
1	2602	163.945589363764	452
1	2602	163.945589363764	453
1	2602	163.945589363764	454
1	2602	163.945589363764	455
1	2625	165.488818003441	456
1	2625	165.488818003441	457
1	2625	165.488818003441	458
1	2625	165.488818003441	459
1	2648	166.795189742759	460
1	2648	166.795189742759	461
1	2648	166.795189742759	462
1	2648	166.795189742759	463
1	2671	167.95981451328	464
1	2671	167.95981451328	465
1	2671	167.95981451328	466
1	2671	167.95981451328	467
1	2694	169.487543239283	468
1	2694	169.487543239283	469
1	2694	169.487543239283	470
1	2694	169.487543239283	471
1	2717	171.060848054837	472
1	2717	171.060848054837	473
1	2717	171.060848054837	474
1	2717	171.060848054837	475
1	2740	172.645935979698	476
1	2740	172.645935979698	477
1	2740	172.645935979698	478
1	2740	172.645935979698	479
1	2763	174.560275631581	480
1	2763	174.560275631581	481
1	2763	174.560275631581	482
1	2763	174.560275631581	483
1	2786	175.842598775957	484
1	2786	175.842598775957	485
1	2786	175.842598775957	486
1	2786	175.842598775957	487
1	2809	177.64869302837	488
1	2809	177.64869302837	489
1	2809	177.64869302837	490
1	2809	177.64869302837	491
1	2832	178.900385812201	492
1	2832	178.900385812201	493
1	2832	178.900385812201	494
1	2832	178.900385812201	495
1	2855	180.737666657276	496
1	2855	180.737666657276	497
1	2855	180.737666657276	498
1	2855	180.737666657276	499
1	2878	181.948089928736	500
1	2878	181.948089928736	501
1	2878	181.948089928736	502
1	2878	181.948089928736	503
1	2901	183.139812980015	504
1	2901	183.139812980015	505
1	2901	183.139812980015	506
1	2901	183.139812980015	507
1	2924	184.648778136236	508
1	2924	184.648778136236	509
1	2924	184.648778136236	510
1	2924	184.648778136236	511
1	2947	186.474639511569	512
1	2947	186.474639511569	513
1	2947	186.474639511569	514
1	2947	186.474639511569	515
1	2970	187.750610045195	516
1	2970	187.750610045195	517
1	2970	187.750610045195	518
1	2970	187.750610045195	519
1	2993	189.699406913439	520
1	2993	189.699406913439	521
1	2993	189.699406913439	522
1	2993	189.699406913439	523
1	3016	191.248385967459	524
1	3016	191.248385967459	525
1	3016	191.248385967459	526
1	3016	191.248385967459	527
1	3039	193.05639511686	528
1	3039	193.05639511686	529
1	3039	193.05639511686	530
1	3039	193.05639511686	531
1	3062	194.560405433992	532
1	3062	194.560405433992	533
1	3062	194.560405433992	534
1	3062	194.560405433992	535
1	3085	196.228406968924	536
1	3085	196.228406968924	537
1	3085	196.228406968924	538
1	3085	196.228406968924	539
1	3108	198.133762521198	540
1	3108	198.133762521198	541
1	3108	198.133762521198	542
1	3108	198.133762521198	543
1	3131	199.947231947328	544
1	3131	199.947231947328	545
1	3131	199.947231947328	546
1	3131	199.947231947328	547
1	3154	201.308280213125	548
1	3154	201.308280213125	549
1	3154	201.308280213125	550
1	3154	201.308280213125	551
1	3177	202.895983311181	552
1	3177	202.895983311181	553
1	3177	202.895983311181	554
1	3177	202.895983311181	555
1	3200	204.129961104255	556
1	3200	204.129961104255	557
1	3200	204.129961104255	558
1	3200	204.129961104255	559
1	3223	206.082641835172	560
1	3223	206.082641835172	561
1	3223	206.082641835172	562
1	3223	206.082641835172	563
1	3246	208.028534444001	564
1	3246	208.028534444001	565
1	3246	208.028534444001	566
1	3246	208.028534444001	567
1	3269	209.683456407169	568
1	3269	209.683456407169	569
1	3269	209.683456407169	570
1	3269	209.683456407169	571
1	3292	211.255741131103	572
1	3292	211.255741131103	573
1	3292	211.255741131103	574
1	3292	211.255741131103	575
1	3315	213.151691188266	576
1	3315	213.151691188266	577
1	3315	213.151691188266	578
1	3315	213.151691188266	579
1	3338	214.606977490095	580
1	3338	214.606977490095	581
1	3338	214.606977490095	582
1	3338	214.606977490095	583
1	3361	216.353458338852	584
1	3361	216.353458338852	585
1	3361	216.353458338852	586
1	3361	216.353458338852	587
1	3384	217.707752529395	588
1	3384	217.707752529395	589
1	3384	217.707752529395	590
1	3384	217.707752529395	591
1	3407	219.691599604598	592
1	3407	219.691599604598	593
1	3407	219.691599604598	594
1	3407	219.691599604598	595
1	3430	221.233782823811	596
1	3430	221.233782823811	597
1	3430	221.233782823811	598
1	3430	221.233782823811	599
1	3453	222.357148355159	600
1	3453	222.357148355159	601
1	3453	222.357148355159	602
1	3453	222.357148355159	603
1	3476	224.044787466934	604
1	3476	224.044787466934	605
1	3476	224.044787466934	606
1	3476	224.044787466934	607
1	3499	225.483247461431	608
1	3499	225.483247461431	609
1	3499	225.483247461431	610
1	3499	225.483247461431	611
1	3522	226.918016920231	612
1	3522	226.918016920231	613
1	3522	226.918016920231	614
1	3522	226.918016920231	615
1	3545	228.293084081184	616
1	3545	228.293084081184	617
1	3545	228.293084081184	618
1	3545	228.293084081184	619
1	3568	229.637639372681	620
1	3568	229.637639372681	621
1	3568	229.637639372681	622
1	3568	229.637639372681	623
1	3591	231.202685722547	624
1	3591	231.202685722547	625
1	3591	231.202685722547	626
1	3591	231.202685722547	627
1	3614	232.749181806141	628
1	3614	232.749181806141	629
1	3614	232.749181806141	630
1	3614	232.749181806141	631
1	3637	233.75811286687	632
1	3637	233.75811286687	633
1	3637	233.75811286687	634
1	3637	233.75811286687	635
1	3660	234.886835516181	636
1	3660	234.886835516181	637
1	3660	234.886835516181	638
1	3660	234.886835516181	639
1	3683	236.796980569304	640
1	3683	236.796980569304	641
1	3683	236.796980569304	642
1	3683	236.796980569304	643
1	3706	238.047308681867	644
1	3706	238.047308681867	645
1	3706	238.047308681867	646
1	3706	238.047308681867	647
1	3729	239.184486307203	648
1	3729	239.184486307203	649
1	3729	239.184486307203	650
1	3729	239.184486307203	651
2	8	0.137167796807	0
2	8	0.137167796807	1
2	31	2.133576192909	2
2	31	2.133576192909	3
2	56	3.332758794486	4
2	56	3.332758794486	5
2	79	4.850405832557	6
2	79	4.850405832557	7
2	105	6.179266116173	8
2	105	6.179266116173	9
2	123	7.259536972827	10
2	123	7.259536972827	11
2	147	8.842869263968	12
2	147	8.842869263968	13
2	170	10.741018503466	14
2	170	10.741018503466	15
2	193	12.373785581127	16
2	193	12.373785581127	17
2	216	13.709904477401	18
2	216	13.709904477401	19
2	238	15.603200322792	20
2	238	15.603200322792	21
2	262	17.115645396012	22
2	262	17.115645396012	23
2	285	18.957815332254	24
2	285	18.957815332254	25
2	308	20.738658731876	26
2	308	20.738658731876	27
2	331	21.815551568311	28
2	331	21.815551568311	29
2	353	22.988569095198	30
2	353	22.988569095198	31
2	386	24.386708728072	32
2	386	24.386708728072	33
2	412	25.483193044171	34
2	412	25.483193044171	35
2	422	26.486976093012	36
2	422	26.486976093012	37
2	446	27.930128400344	38
2	446	27.930128400344	39
2	470	28.948956934934	40
2	470	28.948956934934	41
2	491	30.367726787371	42
2	491	30.367726787371	43
2	514	31.948470112432	44
2	514	31.948470112432	45
2	537	33.036990346177	46
2	537	33.036990346177	47
2	562	34.371844497356	48
2	562	34.371844497356	49
2	584	35.636130950951	50
2	584	35.636130950951	51
2	606	37.216501773722	52
2	606	37.216501773722	53
2	629	38.482958213315	54
2	629	38.482958213315	55
2	654	40.417410995756	56
2	654	40.417410995756	57
2	676	41.709357784525	58
2	676	41.709357784525	59
2	703	43.519034651303	60
2	703	43.519034651303	61
2	721	45.233175254505	62
2	721	45.233175254505	63
2	753	46.679416056308	64
2	753	46.679416056308	65
2	767	48.479942279506	66
2	767	48.479942279506	67
2	790	49.92209072215	68
2	790	49.92209072215	69
2	819	51.231561202158	70
2	819	51.231561202158	71
2	837	52.95672600354	72
2	837	52.95672600354	73
2	872	54.712883210916	74
2	872	54.712883210916	75
2	883	55.694470949503	76
2	883	55.694470949503	77
2	910	57.361868231283	78
2	910	57.361868231283	79
2	929	58.522248281028	80
2	929	58.522248281028	81
2	952	60.400951681977	82
2	952	60.400951681977	83
2	976	61.850570256734	84
2	976	61.850570256734	85
2	997	63.116821226223	86
2	997	63.116821226223	87
2	1021	65.029769380236	88
2	1021	65.029769380236	89
2	1044	66.247432008139	90
2	1044	66.247432008139	91
2	1067	67.783880999418	92
2	1067	67.783880999418	93
2	1089	69.084577777625	94
2	1089	69.084577777625	95
2	1114	70.838781870963	96
2	1114	70.838781870963	97
2	1141	72.088529948447	98
2	1141	72.088529948447	99
2	1163	73.757766038325	100
2	1163	73.757766038325	101
2	1181	74.984160400691	102
2	1181	74.984160400691	103
2	1205	76.362680169503	104
2	1205	76.362680169503	105
2	1229	77.549868075604	106
2	1229	77.549868075604	107
2	1251	78.964433997097	108
2	1251	78.964433997097	109
2	1273	80.320337487129	110
2	1273	80.320337487129	111
2	1297	81.729669305926	112
2	1297	81.729669305926	113
2	1321	83.310068063905	114
2	1321	83.310068063905	115
2	1342	84.918608096061	116
2	1342	84.918608096061	117
2	1371	86.16186268448	118
2	1371	86.16186268448	119
2	1389	87.9993255159	120
2	1389	87.9993255159	121
2	1413	89.710214722477	122
2	1413	89.710214722477	123
2	1435	91.329832826869	124
2	1435	91.329832826869	125
2	1464	93.061049352149	126
2	1464	93.061049352149	127
2	1481	94.528547196926	128
2	1481	94.528547196926	129
2	1504	96.402363187828	130
2	1504	96.402363187828	131
2	1527	97.652148983725	132
2	1527	97.652148983725	133
2	1549	99.181229950713	134
2	1549	99.181229950713	135
2	1573	100.875426965881	136
2	1573	100.875426965881	137
2	1595	102.023992896951	138
2	1595	102.023992896951	139
2	1618	103.28148762716	140
2	1618	103.28148762716	141
2	1641	104.765571486173	142
2	1641	104.765571486173	143
2	1664	105.903758049416	144
2	1664	105.903758049416	145
2	1688	107.069406939256	146
2	1688	107.069406939256	147
2	1719	108.25793632465	148
2	1719	108.25793632465	149
2	1733	110.052068734831	150
2	1733	110.052068734831	151
2	1761	111.663393059782	152
2	1761	111.663393059782	153
2	1779	113.213864453955	154
2	1779	113.213864453955	155
2	1802	114.750810180474	156
2	1802	114.750810180474	157
2	1825	116.669626367524	158
2	1825	116.669626367524	159
2	1848	117.710585829827	160
2	1848	117.710585829827	161
2	1871	119.064549251579	162
2	1871	119.064549251579	163
2	1894	120.086577575686	164
2	1894	120.086577575686	165
2	1917	121.860810668739	166
2	1917	121.860810668739	167
2	1949	123.002747714834	168
2	1949	123.002747714834	169
2	1964	124.272703547889	170
2	1964	124.272703547889	171
2	1988	125.49304116187	172
2	1988	125.49304116187	173
2	2011	127.229529814201	174
2	2011	127.229529814201	175
2	2034	129.102945577141	176
2	2034	129.102945577141	177
2	2055	130.262301261247	178
2	2055	130.262301261247	179
2	2078	131.718940204173	180
2	2078	131.718940204173	181
2	2101	133.257211074487	182
2	2101	133.257211074487	183
2	2134	134.59005110362	184
2	2134	134.59005110362	185
2	2149	136.072444934848	186
2	2149	136.072444934848	187
2	2171	137.110261898729	188
2	2171	137.110261898729	189
2	2198	138.544096678402	190
2	2198	138.544096678402	191
2	2223	140.146505614038	192
2	2223	140.146505614038	193
2	2241	141.315612501178	194
2	2241	141.315612501178	195
2	2262	142.359653441961	196
2	2262	142.359653441961	197
2	2285	144.055793714438	198
2	2285	144.055793714438	199
2	2310	145.820742273928	200
2	2310	145.820742273928	201
2	2332	146.961268326936	202
2	2332	146.961268326936	203
2	2355	148.086180041126	204
2	2355	148.086180041126	205
2	2377	149.572035883979	206
2	2377	149.572035883979	207
2	2400	150.86024756922	208
2	2400	150.86024756922	209
2	2424	152.378676941962	210
2	2424	152.378676941962	211
2	2446	153.712208724543	212
2	2446	153.712208724543	213
2	2479	154.918775744021	214
2	2479	154.918775744021	215
2	2497	156.601462918267	216
2	2497	156.601462918267	217
2	2517	158.31543363058	218
2	2517	158.31543363058	219
2	2539	159.564858147266	220
2	2539	159.564858147266	221
2	2562	161.356081226577	222
2	2562	161.356081226577	223
2	2588	162.624066882374	224
2	2588	162.624066882374	225
2	2607	163.957619847931	226
2	2607	163.957619847931	227
2	2631	165.510518207758	228
2	2631	165.510518207758	229
2	2659	166.815905263788	230
2	2659	166.815905263788	231
2	2678	167.981730677286	232
2	2678	167.981730677286	233
2	2699	169.499243261345	234
2	2699	169.499243261345	235
2	2722	171.071624767327	236
2	2722	171.071624767327	237
2	2746	172.661591914291	238
2	2746	172.661591914291	239
2	2768	174.570538309547	240
2	2768	174.570538309547	241
2	2796	175.864734027849	242
2	2796	175.864734027849	243
2	2814	177.659625132648	244
2	2814	177.659625132648	245
2	2837	178.913853119788	246
2	2837	178.913853119788	247
2	2865	180.761857381005	248
2	2865	180.761857381005	249
2	2884	181.96591850931	250
2	2884	181.96591850931	251
2	2908	183.161558004933	252
2	2908	183.161558004933	253
2	2929	184.660580287735	254
2	2929	184.660580287735	255
2	2953	186.491493761366	256
2	2953	186.491493761366	257
2	2976	187.765764200003	258
2	2976	187.765764200003	259
2	2998	189.710952301776	260
2	2998	189.710952301776	261
2	3021	191.267180625038	262
2	3021	191.267180625038	263
2	3044	193.072098304358	264
2	3044	193.072098304358	265
2	3069	194.574761806311	266
2	3069	194.574761806311	267
2	3096	196.258100769685	268
2	3096	196.258100769685	269
2	3113	198.145764130223	270
2	3113	198.145764130223	271
2	3137	199.965936409333	272
2	3137	199.965936409333	273
2	3159	201.325472982021	274
2	3159	201.325472982021	275
2	3182	202.909379900549	276
2	3182	202.909379900549	277
2	3209	204.153506591947	278
2	3209	204.153506591947	279
2	3228	206.093018594919	280
2	3228	206.093018594919	281
2	3251	208.04324185286	282
2	3251	208.04324185286	283
2	3275	209.699990626297	284
2	3275	209.699990626297	285
2	3297	211.267244509475	286
2	3297	211.267244509475	287
2	3321	213.1663297687	288
2	3321	213.1663297687	289
2	3343	214.617979311428	290
2	3343	214.617979311428	291
2	3367	216.364810019185	292
2	3367	216.364810019185	293
2	3389	217.722326005457	294
2	3389	217.722326005457	295
2	3412	219.708380693772	296
2	3412	219.708380693772	297
2	3435	221.251105840405	298
2	3435	221.251105840405	299
2	3459	222.370584619054	300
2	3459	222.370584619054	301
2	3482	224.06385798687	302
2	3482	224.06385798687	303
2	3506	225.503136700229	304
2	3506	225.503136700229	305
2	3527	226.929170400096	306
2	3527	226.929170400096	307
2	3550	228.313843854993	308
2	3550	228.313843854993	309
2	3575	229.660523048692	310
2	3575	229.660523048692	311
2	3596	231.218145298412	312
2	3596	231.218145298412	313
2	3623	232.775354274047	314
2	3623	232.775354274047	315
2	3652	233.800401408664	316
2	3652	233.800401408664	317
2	3667	234.905163207567	318
2	3667	234.905163207567	319
2	3688	236.812979004198	320
2	3688	236.812979004198	321
2	3712	238.059003531039	322
2	3712	238.059003531039	323
2	3735	239.200765689695	324
2	3735	239.200765689695	325
3	9	0.137786054054	0
3	9	0.137786054054	1
3	9	0.137786054054	2
3	39	2.151995625601	3
3	39	2.151995625601	4
3	39	2.151995625601	5
3	54	3.331295920388	6
3	54	3.331295920388	7
3	54	3.331295920388	8
3	77	4.840971061742	9
3	77	4.840971061742	10
3	77	4.840971061742	11
3	100	6.168103666513	12
3	100	6.168103666513	13
3	100	6.168103666513	14
3	135	7.282688311692	15
3	135	7.282688311692	16
3	135	7.282688311692	17
3	154	8.854270598001	18
3	154	8.854270598001	19
3	154	8.854270598001	20
3	169	10.731452224602	21
3	169	10.731452224602	22
3	169	10.731452224602	23
3	201	12.388629587874	24
3	201	12.388629587874	25
3	201	12.388629587874	26
3	221	13.719709545397	27
3	221	13.719709545397	28
3	221	13.719709545397	29
3	239	15.604326504322	30
3	239	15.604326504322	31
3	239	15.604326504322	32
3	263	17.118675060855	33
3	263	17.118675060855	34
3	263	17.118675060855	35
3	284	18.957139598873	36
3	284	18.957139598873	37
3	284	18.957139598873	38
3	307	20.737776843546	39
3	307	20.737776843546	40
3	307	20.737776843546	41
3	330	21.815013132293	42
3	330	21.815013132293	43
3	330	21.815013132293	44
3	354	22.993352182317	45
3	354	22.993352182317	46
3	354	22.993352182317	47
3	376	24.368269094224	48
3	376	24.368269094224	49
3	376	24.368269094224	50
3	399	25.462332179023	51
3	399	25.462332179023	52
3	399	25.462332179023	53
3	434	26.518104606469	54
3	434	26.518104606469	55
3	434	26.518104606469	56
3	454	27.944173003322	57
3	454	27.944173003322	58
3	454	27.944173003322	59
3	469	28.946554663001	60
3	469	28.946554663001	61
3	469	28.946554663001	62
3	492	30.368060123796	63
3	492	30.368060123796	64
3	492	30.368060123796	65
3	516	31.954997984903	66
3	516	31.954997984903	67
3	516	31.954997984903	68
3	538	33.039503165188	69
3	538	33.039503165188	70
3	538	33.039503165188	71
3	561	34.369629369021	72
3	561	34.369629369021	73
3	561	34.369629369021	74
3	583	35.635632184613	75
3	583	35.635632184613	76
3	583	35.635632184613	77
3	607	37.223174618181	78
3	607	37.223174618181	79
3	607	37.223174618181	80
3	631	38.485448913405	81
3	631	38.485448913405	82
3	631	38.485448913405	83
3	652	40.409344179827	84
3	652	40.409344179827	85
3	652	40.409344179827	86
3	675	41.705859604954	87
3	675	41.705859604954	88
3	675	41.705859604954	89
3	698	43.504679336148	90
3	698	43.504679336148	91
3	698	43.504679336148	92
3	729	45.263143400138	93
3	729	45.263143400138	94
3	729	45.263143400138	95
3	745	46.667474359479	96
3	745	46.667474359479	97
3	745	46.667474359479	98
3	768	48.480615827976	99
3	768	48.480615827976	100
3	768	48.480615827976	101
3	794	49.935862730792	102
3	794	49.935862730792	103
3	794	49.935862730792	104
3	814	51.226752852776	105
3	814	51.226752852776	106
3	814	51.226752852776	107
3	843	52.964251007035	108
3	843	52.964251007035	109
3	843	52.964251007035	110
3	864	54.690719842016	111
3	864	54.690719842016	112
3	864	54.690719842016	113
3	882	55.686839642224	114
3	882	55.686839642224	115
3	882	55.686839642224	116
3	905	57.35021990907	117
3	905	57.35021990907	118
3	905	57.35021990907	119
3	937	58.535626640124	120
3	937	58.535626640124	121
3	937	58.535626640124	122
3	951	60.397975625592	123
3	951	60.397975625592	124
3	951	60.397975625592	125
3	974	61.842066119386	126
3	974	61.842066119386	127
3	974	61.842066119386	128
3	999	63.125695470968	129
3	999	63.125695470968	130
3	999	63.125695470968	131
3	1022	65.034015417959	132
3	1022	65.034015417959	133
3	1022	65.034015417959	134
3	1043	66.245500861328	135
3	1043	66.245500861328	136
3	1043	66.245500861328	137
3	1066	67.781082333649	138
3	1066	67.781082333649	139
3	1066	67.781082333649	140
3	1090	69.087247275829	141
3	1090	69.087247275829	142
3	1090	69.087247275829	143
3	1113	70.83460018889	144
3	1113	70.83460018889	145
3	1113	70.83460018889	146
3	1135	72.073488718061	147
3	1135	72.073488718061	148
3	1135	72.073488718061	149
3	1158	73.74274380812	150
3	1158	73.74274380812	151
3	1158	73.74274380812	152
3	1193	75.021068226376	153
3	1193	75.021068226376	154
3	1193	75.021068226376	155
3	1204	76.360883962967	156
3	1204	76.360883962967	157
3	1204	76.360883962967	158
3	1228	77.545857786085	159
3	1228	77.545857786085	160
3	1228	77.545857786085	161
3	1250	78.957613703457	162
3	1250	78.957613703457	163
3	1250	78.957613703457	164
3	1274	80.327894967126	165
3	1274	80.327894967126	166
3	1274	80.327894967126	167
3	1298	81.733728467443	168
3	1298	81.733728467443	169
3	1298	81.733728467443	170
3	1320	83.308876266008	171
3	1320	83.308876266008	172
3	1320	83.308876266008	173
3	1343	84.921630943785	174
3	1343	84.921630943785	175
3	1343	84.921630943785	176
3	1365	86.147888786594	177
3	1365	86.147888786594	178
3	1365	86.147888786594	179
3	1388	87.998124316342	180
3	1388	87.998124316342	181
3	1388	87.998124316342	182
3	1411	89.701927055791	183
3	1411	89.701927055791	184
3	1411	89.701927055791	185
3	1434	91.325260849982	186
3	1434	91.325260849982	187
3	1434	91.325260849982	188
3	1458	93.052789881195	189
3	1458	93.052789881195	190
3	1458	93.052789881195	191
3	1489	94.573150815374	192
3	1489	94.573150815374	193
3	1489	94.573150815374	194
3	1509	96.406841300982	195
3	1509	96.406841300982	196
3	1509	96.406841300982	197
3	1526	97.651682568176	198
3	1526	97.651682568176	199
3	1526	97.651682568176	200
3	1551	99.190220993381	201
3	1551	99.190220993381	202
3	1551	99.190220993381	203
3	1578	100.885245039947	204
3	1578	100.885245039947	205
3	1578	100.885245039947	206
3	1603	102.042976568384	207
3	1603	102.042976568384	208
3	1603	102.042976568384	209
3	1619	103.283939368086	210
3	1619	103.283939368086	211
3	1619	103.283939368086	212
3	1645	104.77906721892	213
3	1645	104.77906721892	214
3	1645	104.77906721892	215
3	1665	105.904001947848	216
3	1665	105.904001947848	217
3	1665	105.904001947848	218
3	1687	107.066319291168	219
3	1687	107.066319291168	220
3	1687	107.066319291168	221
3	1722	108.271418217786	222
3	1722	108.271418217786	223
3	1722	108.271418217786	224
3	1734	110.053546037758	225
3	1734	110.053546037758	226
3	1734	110.053546037758	227
3	1762	111.66451083987	228
3	1762	111.66451083987	229
3	1762	111.66451083987	230
3	1781	113.214441544846	231
3	1781	113.214441544846	232
3	1781	113.214441544846	233
3	1811	114.774558428149	234
3	1811	114.774558428149	235
3	1811	114.774558428149	236
3	1827	116.672574303651	237
3	1827	116.672574303651	238
3	1827	116.672574303651	239
3	1849	117.711109810575	240
3	1849	117.711109810575	241
3	1849	117.711109810575	242
3	1872	119.066893557871	243
3	1872	119.066893557871	244
3	1872	119.066893557871	245
3	1895	120.088853846947	246
3	1895	120.088853846947	247
3	1895	120.088853846947	248
3	1918	121.864618326206	249
3	1918	121.864618326206	250
3	1918	121.864618326206	251
3	1941	122.987942600635	252
3	1941	122.987942600635	253
3	1941	122.987942600635	254
3	1963	124.272136356068	255
3	1963	124.272136356068	256
3	1963	124.272136356068	257
3	1986	125.489098146012	258
3	1986	125.489098146012	259
3	1986	125.489098146012	260
3	2010	127.226752420591	261
3	2010	127.226752420591	262
3	2010	127.226752420591	263
3	2033	129.101005385109	264
3	2033	129.101005385109	265
3	2033	129.101005385109	266
3	2063	130.278243577508	267
3	2063	130.278243577508	268
3	2063	130.278243577508	269
3	2082	131.73691274148	270
3	2082	131.73691274148	271
3	2082	131.73691274148	272
3	2102	133.263979526406	273
3	2102	133.263979526406	274
3	2102	133.263979526406	275
3	2125	134.572969737784	276
3	2125	134.572969737784	277
3	2125	134.572969737784	278
3	2148	136.071826739245	279
3	2148	136.071826739245	280
3	2148	136.071826739245	281
3	2172	137.116587781953	282
3	2172	137.116587781953	283
3	2172	137.116587781953	284
3	2193	138.531883838592	285
3	2193	138.531883838592	286
3	2193	138.531883838592	287
3	2217	140.142638176202	288
3	2217	140.142638176202	289
3	2217	140.142638176202	290
3	2239	141.306645849458	291
3	2239	141.306645849458	292
3	2239	141.306645849458	293
3	2264	142.361497027494	294
3	2264	142.361497027494	295
3	2264	142.361497027494	296
3	2286	144.062486056846	297
3	2286	144.062486056846	298
3	2286	144.062486056846	299
3	2308	145.817725365925	300
3	2308	145.817725365925	301
3	2308	145.817725365925	302
3	2331	146.953646056489	303
3	2331	146.953646056489	304
3	2331	146.953646056489	305
3	2362	148.099132757388	306
3	2362	148.099132757388	307
3	2362	148.099132757388	308
3	2378	149.580921141851	309
3	2378	149.580921141851	310
3	2378	149.580921141851	311
3	2401	150.867603770658	312
3	2401	150.867603770658	313
3	2401	150.867603770658	314
3	2423	152.374578829895	315
3	2423	152.374578829895	316
3	2423	152.374578829895	317
3	2448	153.720687964614	318
3	2448	153.720687964614	319
3	2448	153.720687964614	320
3	2469	154.904391751996	321
3	2469	154.904391751996	322
3	2469	154.904391751996	323
3	2492	156.590268594525	324
3	2492	156.590268594525	325
3	2492	156.590268594525	326
3	2515	158.311682166568	327
3	2515	158.311682166568	328
3	2515	158.311682166568	329
3	2547	159.579944706073	330
3	2547	159.579944706073	331
3	2547	159.579944706073	332
3	2561	161.354093999831	333
3	2561	161.354093999831	334
3	2561	161.354093999831	335
3	2584	162.613182832096	336
3	2584	162.613182832096	337
3	2584	162.613182832096	338
3	2608	163.958459289283	339
3	2608	163.958459289283	340
3	2608	163.958459289283	341
3	2638	165.524824519504	342
3	2638	165.524824519504	343
3	2638	165.524824519504	344
3	2654	166.809711222945	345
3	2654	166.809711222945	346
3	2654	166.809711222945	347
3	2676	167.974767489672	348
3	2676	167.974767489672	349
3	2676	167.974767489672	350
3	2700	169.499892669589	351
3	2700	169.499892669589	352
3	2700	169.499892669589	353
3	2730	171.097649538183	354
3	2730	171.097649538183	355
3	2730	171.097649538183	356
3	2757	172.6924224379	357
3	2757	172.6924224379	358
3	2757	172.6924224379	359
3	2771	174.583208865825	360
3	2771	174.583208865825	361
3	2771	174.583208865825	362
3	2798	175.871740835665	363
3	2798	175.871740835665	364
3	2798	175.871740835665	365
3	2815	177.662761835505	366
3	2815	177.662761835505	367
3	2815	177.662761835505	368
3	2838	178.917318021832	369
3	2838	178.917318021832	370
3	2838	178.917318021832	371
3	2860	180.748846001607	372
3	2860	180.748846001607	373
3	2860	180.748846001607	374
3	2885	181.967443428323	375
3	2885	181.967443428323	376
3	2885	181.967443428323	377
3	2907	183.152009431158	378
3	2907	183.152009431158	379
3	2907	183.152009431158	380
3	2930	184.661904755819	381
3	2930	184.661904755819	382
3	2930	184.661904755819	383
3	2954	186.496763696338	384
3	2954	186.496763696338	385
3	2954	186.496763696338	386
3	2977	187.767645055941	387
3	2977	187.767645055941	388
3	2977	187.767645055941	389
3	3010	189.743732322636	390
3	3010	189.743732322636	391
3	3010	189.743732322636	392
3	3024	191.298558941017	393
3	3024	191.298558941017	394
3	3024	191.298558941017	395
3	3047	193.08536168691	396
3	3047	193.08536168691	397
3	3047	193.08536168691	398
3	3067	194.571115068634	399
3	3067	194.571115068634	400
3	3067	194.571115068634	401
3	3097	196.262170259678	402
3	3097	196.262170259678	403
3	3097	196.262170259678	404
3	3117	198.165436531312	405
3	3117	198.165436531312	406
3	3117	198.165436531312	407
3	3136	199.960240183654	408
3	3136	199.960240183654	409
3	3136	199.960240183654	410
3	3160	201.329449660204	411
3	3160	201.329449660204	412
3	3160	201.329449660204	413
3	3186	202.919599297434	414
3	3186	202.919599297434	415
3	3186	202.919599297434	416
3	3205	204.141777181932	417
3	3205	204.141777181932	418
3	3205	204.141777181932	419
3	3232	206.103137232724	420
3	3232	206.103137232724	421
3	3232	206.103137232724	422
3	3253	208.048179936045	423
3	3253	208.048179936045	424
3	3253	208.048179936045	425
3	3283	209.71655675607	426
3	3283	209.71655675607	427
3	3283	209.71655675607	428
3	3298	211.275887378839	429
3	3298	211.275887378839	430
3	3298	211.275887378839	431
3	3322	213.172218239945	432
3	3322	213.172218239945	433
3	3322	213.172218239945	434
3	3347	214.634457387849	435
3	3347	214.634457387849	436
3	3347	214.634457387849	437
3	3368	216.365354549762	438
3	3368	216.365354549762	439
3	3368	216.365354549762	440
3	3393	217.743336006406	441
3	3393	217.743336006406	442
3	3393	217.743336006406	443
3	3413	219.70993644619	444
3	3413	219.70993644619	445
3	3413	219.70993644619	446
3	3444	221.270174394808	447
3	3444	221.270174394808	448
3	3444	221.270174394808	449
3	3458	222.370077765338	450
3	3458	222.370077765338	451
3	3458	222.370077765338	452
3	3487	224.067626919987	453
3	3487	224.067626919987	454
3	3487	224.067626919987	455
3	3504	225.498296935586	456
3	3504	225.498296935586	457
3	3504	225.498296935586	458
3	3529	226.935271497913	459
3	3529	226.935271497913	460
3	3529	226.935271497913	461
3	3551	228.321898300325	462
3	3551	228.321898300325	463
3	3551	228.321898300325	464
3	3574	229.659842787991	465
3	3574	229.659842787991	466
3	3574	229.659842787991	467
3	3597	231.227418714282	468
3	3597	231.227418714282	469
3	3597	231.227418714282	470
3	3619	232.762746990915	471
3	3619	232.762746990915	472
3	3619	232.762746990915	473
3	3643	233.778777051209	474
3	3643	233.778777051209	475
3	3643	233.778777051209	476
3	3666	234.903361634604	477
3	3666	234.903361634604	478
3	3666	234.903361634604	479
3	3689	236.816648044523	480
3	3689	236.816648044523	481
3	3689	236.816648044523	482
3	3711	238.058510188805	483
3	3711	238.058510188805	484
3	3711	238.058510188805	485
3	3734	239.197112819619	486
3	3734	239.197112819619	487
3	3734	239.197112819619	488
4	10	0.139799085561	0
4	10	0.139799085561	1
4	10	0.139799085561	2
4	10	0.139799085561	3
4	32	2.135110543324	4
4	32	2.135110543324	5
4	32	2.135110543324	6
4	32	2.135110543324	7
4	55	3.331786336882	8
4	55	3.331786336882	9
4	55	3.331786336882	10
4	55	3.331786336882	11
4	78	4.845942825286	12
4	78	4.845942825286	13
4	78	4.845942825286	14
4	78	4.845942825286	15
4	101	6.169301046022	16
4	101	6.169301046022	17
4	101	6.169301046022	18
4	101	6.169301046022	19
4	124	7.260367223119	20
4	124	7.260367223119	21
4	124	7.260367223119	22
4	124	7.260367223119	23
4	146	8.839299470222	24
4	146	8.839299470222	25
4	146	8.839299470222	26
4	146	8.839299470222	27
4	171	10.741450189045	28
4	171	10.741450189045	29
4	171	10.741450189045	30
4	171	10.741450189045	31
4	192	12.367965268757	32
4	192	12.367965268757	33
4	192	12.367965268757	34
4	192	12.367965268757	35
4	215	13.70502334648	36
4	215	13.70502334648	37
4	215	13.70502334648	38
4	215	13.70502334648	39
4	245	15.615430978876	40
4	245	15.615430978876	41
4	245	15.615430978876	42
4	245	15.615430978876	43
4	261	17.111194035027	44
4	261	17.111194035027	45
4	261	17.111194035027	46
4	261	17.111194035027	47
4	286	18.957988815707	48
4	286	18.957988815707	49
4	286	18.957988815707	50
4	286	18.957988815707	51
4	309	20.740219310893	52
4	309	20.740219310893	53
4	309	20.740219310893	54
4	309	20.740219310893	55
4	332	21.816531032219	56
4	332	21.816531032219	57
4	332	21.816531032219	58
4	332	21.816531032219	59
4	361	23.011972726438	60
4	361	23.011972726438	61
4	361	23.011972726438	62
4	361	23.011972726438	63
4	377	24.37103317615	64
4	377	24.37103317615	65
4	377	24.37103317615	66
4	377	24.37103317615	67
4	400	25.471383281291	68
4	400	25.471383281291	69
4	400	25.471383281291	70
4	400	25.471383281291	71
4	423	26.490088237131	72
4	423	26.490088237131	73
4	423	26.490088237131	74
4	423	26.490088237131	75
4	445	27.929477783266	76
4	445	27.929477783266	77
4	445	27.929477783266	78
4	445	27.929477783266	79
4	468	28.943181031533	80
4	468	28.943181031533	81
4	468	28.943181031533	82
4	468	28.943181031533	83
4	493	30.376454511228	84
4	493	30.376454511228	85
4	493	30.376454511228	86
4	493	30.376454511228	87
4	515	31.953657197353	88
4	515	31.953657197353	89
4	515	31.953657197353	90
4	515	31.953657197353	91
4	539	33.041215932205	92
4	539	33.041215932205	93
4	539	33.041215932205	94
4	539	33.041215932205	95
4	560	34.364403887352	96
4	560	34.364403887352	97
4	560	34.364403887352	98
4	560	34.364403887352	99
4	585	35.641303523546	100
4	585	35.641303523546	101
4	585	35.641303523546	102
4	585	35.641303523546	103
4	608	37.226407443264	104
4	608	37.226407443264	105
4	608	37.226407443264	106
4	608	37.226407443264	107
4	630	38.484717284992	108
4	630	38.484717284992	109
4	630	38.484717284992	110
4	630	38.484717284992	111
4	653	40.414171944082	112
4	653	40.414171944082	113
4	653	40.414171944082	114
4	653	40.414171944082	115
4	677	41.710008547299	116
4	677	41.710008547299	117
4	677	41.710008547299	118
4	677	41.710008547299	119
4	704	43.520402667413	120
4	704	43.520402667413	121
4	704	43.520402667413	122
4	704	43.520402667413	123
4	722	45.23462695358	124
4	722	45.23462695358	125
4	722	45.23462695358	126
4	722	45.23462695358	127
4	744	46.665991803978	128
4	744	46.665991803978	129
4	744	46.665991803978	130
4	744	46.665991803978	131
4	769	48.484058097587	132
4	769	48.484058097587	133
4	769	48.484058097587	134
4	769	48.484058097587	135
4	791	49.926294013598	136
4	791	49.926294013598	137
4	791	49.926294013598	138
4	791	49.926294013598	139
4	813	51.220571097694	140
4	813	51.220571097694	141
4	813	51.220571097694	142
4	813	51.220571097694	143
4	836	52.952477345668	144
4	836	52.952477345668	145
4	836	52.952477345668	146
4	836	52.952477345668	147
4	859	54.677526084451	148
4	859	54.677526084451	149
4	859	54.677526084451	150
4	859	54.677526084451	151
4	884	55.696372258762	152
4	884	55.696372258762	153
4	884	55.696372258762	154
4	884	55.696372258762	155
4	906	57.354029218462	156
4	906	57.354029218462	157
4	906	57.354029218462	158
4	906	57.354029218462	159
4	928	58.52159842392	160
4	928	58.52159842392	161
4	928	58.52159842392	162
4	928	58.52159842392	163
4	959	60.412811394854	164
4	959	60.412811394854	165
4	959	60.412811394854	166
4	959	60.412811394854	167
4	975	61.845398461231	168
4	975	61.845398461231	169
4	975	61.845398461231	170
4	975	61.845398461231	171
4	998	63.120215557481	172
4	998	63.120215557481	173
4	998	63.120215557481	174
4	998	63.120215557481	175
4	1020	65.028226163156	176
4	1020	65.028226163156	177
4	1020	65.028226163156	178
4	1020	65.028226163156	179
4	1045	66.249831486875	180
4	1045	66.249831486875	181
4	1045	66.249831486875	182
4	1045	66.249831486875	183
4	1074	67.802535585491	184
4	1074	67.802535585491	185
4	1074	67.802535585491	186
4	1074	67.802535585491	187
4	1091	69.092898706896	188
4	1091	69.092898706896	189
4	1091	69.092898706896	190
4	1091	69.092898706896	191
4	1112	70.83132487738	192
4	1112	70.83132487738	193
4	1112	70.83132487738	194
4	1112	70.83132487738	195
4	1136	72.080665166494	196
4	1136	72.080665166494	197
4	1136	72.080665166494	198
4	1136	72.080665166494	199
4	1159	73.749537711793	200
4	1159	73.749537711793	201
4	1159	73.749537711793	202
4	1159	73.749537711793	203
4	1182	74.989546525739	204
4	1182	74.989546525739	205
4	1182	74.989546525739	206
4	1182	74.989546525739	207
4	1211	76.376127601691	208
4	1211	76.376127601691	209
4	1211	76.376127601691	210
4	1211	76.376127601691	211
4	1227	77.545440665684	212
4	1227	77.545440665684	213
4	1227	77.545440665684	214
4	1227	77.545440665684	215
4	1255	78.96928388703	216
4	1255	78.96928388703	217
4	1255	78.96928388703	218
4	1255	78.96928388703	219
4	1275	80.329720328459	220
4	1275	80.329720328459	221
4	1275	80.329720328459	222
4	1275	80.329720328459	223
4	1296	81.727429768889	224
4	1296	81.727429768889	225
4	1296	81.727429768889	226
4	1296	81.727429768889	227
4	1319	83.30201417782	228
4	1319	83.30201417782	229
4	1319	83.30201417782	230
4	1319	83.30201417782	231
4	1349	84.93312409194	232
4	1349	84.93312409194	233
4	1349	84.93312409194	234
4	1349	84.93312409194	235
4	1366	86.15503899507	236
4	1366	86.15503899507	237
4	1366	86.15503899507	238
4	1366	86.15503899507	239
4	1390	87.999572629459	240
4	1390	87.999572629459	241
4	1390	87.999572629459	242
4	1390	87.999572629459	243
4	1412	89.707445102775	244
4	1412	89.707445102775	245
4	1412	89.707445102775	246
4	1412	89.707445102775	247
4	1436	91.334500989972	248
4	1436	91.334500989972	249
4	1436	91.334500989972	250
4	1436	91.334500989972	251
4	1457	93.047117459088	252
4	1457	93.047117459088	253
4	1457	93.047117459088	254
4	1457	93.047117459088	255
4	1480	94.527817836754	256
4	1480	94.527817836754	257
4	1480	94.527817836754	258
4	1480	94.527817836754	259
4	1503	96.39633683614	260
4	1503	96.39633683614	261
4	1503	96.39633683614	262
4	1503	96.39633683614	263
4	1528	97.654074905367	264
4	1528	97.654074905367	265
4	1528	97.654074905367	266
4	1528	97.654074905367	267
4	1550	99.181245372496	268
4	1550	99.181245372496	269
4	1550	99.181245372496	270
4	1550	99.181245372496	271
4	1572	100.87046348768	272
4	1572	100.87046348768	273
4	1572	100.87046348768	274
4	1572	100.87046348768	275
4	1596	102.024164070254	276
4	1596	102.024164070254	277
4	1596	102.024164070254	278
4	1596	102.024164070254	279
4	1622	103.292820312159	280
4	1622	103.292820312159	281
4	1622	103.292820312159	282
4	1622	103.292820312159	283
4	1642	104.770781754362	284
4	1642	104.770781754362	285
4	1642	104.770781754362	286
4	1642	104.770781754362	287
4	1666	105.912589496546	288
4	1666	105.912589496546	289
4	1666	105.912589496546	290
4	1666	105.912589496546	291
4	1693	107.07696176547	292
4	1693	107.07696176547	293
4	1693	107.07696176547	294
4	1693	107.07696176547	295
4	1710	108.234673390245	296
4	1710	108.234673390245	297
4	1710	108.234673390245	298
4	1710	108.234673390245	299
4	1735	110.055010637421	300
4	1735	110.055010637421	301
4	1735	110.055010637421	302
4	1735	110.055010637421	303
4	1756	111.65298289573	304
4	1756	111.65298289573	305
4	1756	111.65298289573	306
4	1756	111.65298289573	307
4	1780	113.213901825595	308
4	1780	113.213901825595	309
4	1780	113.213901825595	310
4	1780	113.213901825595	311
4	1803	114.753182325005	312
4	1803	114.753182325005	313
4	1803	114.753182325005	314
4	1803	114.753182325005	315
4	1826	116.671480705503	316
4	1826	116.671480705503	317
4	1826	116.671480705503	318
4	1826	116.671480705503	319
4	1850	117.717606767872	320
4	1850	117.717606767872	321
4	1850	117.717606767872	322
4	1850	117.717606767872	323
4	1873	119.067766174404	324
4	1873	119.067766174404	325
4	1873	119.067766174404	326
4	1873	119.067766174404	327
4	1896	120.089838108085	328
4	1896	120.089838108085	329
4	1896	120.089838108085	330
4	1896	120.089838108085	331
4	1924	121.877211674214	332
4	1924	121.877211674214	333
4	1924	121.877211674214	334
4	1924	121.877211674214	335
4	1940	122.986909856825	336
4	1940	122.986909856825	337
4	1940	122.986909856825	338
4	1940	122.986909856825	339
4	1974	124.319303133542	340
4	1974	124.319303133542	341
4	1974	124.319303133542	342
4	1974	124.319303133542	343
4	1987	125.492456342813	344
4	1987	125.492456342813	345
4	1987	125.492456342813	346
4	1987	125.492456342813	347
4	2009	127.220242791587	348
4	2009	127.220242791587	349
4	2009	127.220242791587	350
4	2009	127.220242791587	351
4	2032	129.100303774166	352
4	2032	129.100303774166	353
4	2032	129.100303774166	354
4	2032	129.100303774166	355
4	2056	130.26258372778	356
4	2056	130.26258372778	357
4	2056	130.26258372778	358
4	2056	130.26258372778	359
4	2081	131.733320658859	360
4	2081	131.733320658859	361
4	2081	131.733320658859	362
4	2081	131.733320658859	363
4	2105	133.273182576112	364
4	2105	133.273182576112	365
4	2105	133.273182576112	366
4	2105	133.273182576112	367
4	2124	134.572127574296	368
4	2124	134.572127574296	369
4	2124	134.572127574296	370
4	2124	134.572127574296	371
4	2147	136.065595379294	372
4	2147	136.065595379294	373
4	2147	136.065595379294	374
4	2147	136.065595379294	375
4	2170	137.110099591405	376
4	2170	137.110099591405	377
4	2170	137.110099591405	378
4	2170	137.110099591405	379
4	2194	138.536296711928	380
4	2194	138.536296711928	381
4	2194	138.536296711928	382
4	2194	138.536296711928	383
4	2216	140.134626321762	384
4	2216	140.134626321762	385
4	2216	140.134626321762	386
4	2216	140.134626321762	387
4	2240	141.306975825829	388
4	2240	141.306975825829	389
4	2240	141.306975825829	390
4	2240	141.306975825829	391
4	2263	142.360492958595	392
4	2263	142.360492958595	393
4	2263	142.360492958595	394
4	2263	142.360492958595	395
4	2287	144.064103585803	396
4	2287	144.064103585803	397
4	2287	144.064103585803	398
4	2287	144.064103585803	399
4	2309	145.818443987978	400
4	2309	145.818443987978	401
4	2309	145.818443987978	402
4	2309	145.818443987978	403
4	2342	146.976978448234	404
4	2342	146.976978448234	405
4	2342	146.976978448234	406
4	2342	146.976978448234	407
4	2354	148.084596763945	408
4	2354	148.084596763945	409
4	2354	148.084596763945	410
4	2354	148.084596763945	411
4	2381	149.584236608091	412
4	2381	149.584236608091	413
4	2381	149.584236608091	414
4	2381	149.584236608091	415
4	2402	150.869177324914	416
4	2402	150.869177324914	417
4	2402	150.869177324914	418
4	2402	150.869177324914	419
4	2430	152.389999082414	420
4	2430	152.389999082414	421
4	2430	152.389999082414	422
4	2430	152.389999082414	423
4	2447	153.713761541078	424
4	2447	153.713761541078	425
4	2447	153.713761541078	426
4	2447	153.713761541078	427
4	2470	154.908188012885	428
4	2470	154.908188012885	429
4	2470	154.908188012885	430
4	2470	154.908188012885	431
4	2493	156.595959797754	432
4	2493	156.595959797754	433
4	2493	156.595959797754	434
4	2493	156.595959797754	435
4	2516	158.314526974579	436
4	2516	158.314526974579	437
4	2516	158.314526974579	438
4	2516	158.314526974579	439
4	2538	159.559395834069	440
4	2538	159.559395834069	441
4	2538	159.559395834069	442
4	2538	159.559395834069	443
4	2563	161.360984882574	444
4	2563	161.360984882574	445
4	2563	161.360984882574	446
4	2563	161.360984882574	447
4	2589	162.633419240958	448
4	2589	162.633419240958	449
4	2589	162.633419240958	450
4	2589	162.633419240958	451
4	2609	163.964077722529	452
4	2609	163.964077722529	453
4	2609	163.964077722529	454
4	2609	163.964077722529	455
4	2630	165.501276611492	456
4	2630	165.501276611492	457
4	2630	165.501276611492	458
4	2630	165.501276611492	459
4	2653	166.805271315762	460
4	2653	166.805271315762	461
4	2653	166.805271315762	462
4	2653	166.805271315762	463
4	2677	167.977509792848	464
4	2677	167.977509792848	465
4	2677	167.977509792848	466
4	2677	167.977509792848	467
4	2701	169.507331209046	468
4	2701	169.507331209046	469
4	2701	169.507331209046	470
4	2701	169.507331209046	471
4	2723	171.081334370423	472
4	2723	171.081334370423	473
4	2723	171.081334370423	474
4	2723	171.081334370423	475
4	2745	172.659273857545	476
4	2745	172.659273857545	477
4	2745	172.659273857545	478
4	2745	172.659273857545	479
4	2776	174.594468840522	480
4	2776	174.594468840522	481
4	2776	174.594468840522	482
4	2776	174.594468840522	483
4	2791	175.853655628292	484
4	2791	175.853655628292	485
4	2791	175.853655628292	486
4	2791	175.853655628292	487
4	2821	177.673561525879	488
4	2821	177.673561525879	489
4	2821	177.673561525879	490
4	2821	177.673561525879	491
4	2845	178.937590937536	492
4	2845	178.937590937536	493
4	2845	178.937590937536	494
4	2845	178.937590937536	495
4	2861	180.757976883073	496
4	2861	180.757976883073	497
4	2861	180.757976883073	498
4	2861	180.757976883073	499
4	2883	181.964056054993	500
4	2883	181.964056054993	501
4	2883	181.964056054993	502
4	2883	181.964056054993	503
4	2906	183.151620030563	504
4	2906	183.151620030563	505
4	2906	183.151620030563	506
4	2906	183.151620030563	507
4	2931	184.662653514453	508
4	2931	184.662653514453	509
4	2931	184.662653514453	510
4	2931	184.662653514453	511
4	2952	186.489428487482	512
4	2952	186.489428487482	513
4	2952	186.489428487482	514
4	2952	186.489428487482	515
4	2975	187.765014341289	516
4	2975	187.765014341289	517
4	2975	187.765014341289	518
4	2975	187.765014341289	519
4	2999	189.716029520061	520
4	2999	189.716029520061	521
4	2999	189.716029520061	522
4	2999	189.716029520061	523
4	3025	191.304401565254	524
4	3025	191.304401565254	525
4	3025	191.304401565254	526
4	3025	191.304401565254	527
4	3051	193.095914962457	528
4	3051	193.095914962457	529
4	3051	193.095914962457	530
4	3051	193.095914962457	531
4	3068	194.574235887407	532
4	3068	194.574235887407	533
4	3068	194.574235887407	534
4	3068	194.574235887407	535
4	3090	196.246554880695	536
4	3090	196.246554880695	537
4	3090	196.246554880695	538
4	3090	196.246554880695	539
4	3116	198.162944047057	540
4	3116	198.162944047057	541
4	3116	198.162944047057	542
4	3116	198.162944047057	543
4	3141	199.970777560565	544
4	3141	199.970777560565	545
4	3141	199.970777560565	546
4	3141	199.970777560565	547
4	3161	201.334965067188	548
4	3161	201.334965067188	549
4	3161	201.334965067188	550
4	3161	201.334965067188	551
4	3183	202.911196927572	552
4	3183	202.911196927572	553
4	3183	202.911196927572	554
4	3183	202.911196927572	555
4	3210	204.153577762407	556
4	3210	204.153577762407	557
4	3210	204.153577762407	558
4	3210	204.153577762407	559
4	3229	206.09449566775	560
4	3229	206.09449566775	561
4	3229	206.09449566775	562
4	3229	206.09449566775	563
4	3252	208.043382293503	564
4	3252	208.043382293503	565
4	3252	208.043382293503	566
4	3252	208.043382293503	567
4	3274	209.694723081084	568
4	3274	209.694723081084	569
4	3274	209.694723081084	570
4	3274	209.694723081084	571
4	3301	211.283913689947	572
4	3301	211.283913689947	573
4	3301	211.283913689947	574
4	3301	211.283913689947	575
4	3320	213.164676996151	576
4	3320	213.164676996151	577
4	3320	213.164676996151	578
4	3320	213.164676996151	579
4	3344	214.624580857925	580
4	3344	214.624580857925	581
4	3344	214.624580857925	582
4	3344	214.624580857925	583
4	3366	216.364570588147	584
4	3366	216.364570588147	585
4	3366	216.364570588147	586
4	3366	216.364570588147	587
4	3392	217.734577885231	588
4	3392	217.734577885231	589
4	3392	217.734577885231	590
4	3392	217.734577885231	591
4	3414	219.714515508512	592
4	3414	219.714515508512	593
4	3414	219.714515508512	594
4	3414	219.714515508512	595
4	3436	221.251575486268	596
4	3436	221.251575486268	597
4	3436	221.251575486268	598
4	3436	221.251575486268	599
4	3465	222.383404444377	600
4	3465	222.383404444377	601
4	3465	222.383404444377	602
4	3465	222.383404444377	603
4	3481	224.057323465027	604
4	3481	224.057323465027	605
4	3481	224.057323465027	606
4	3481	224.057323465027	607
4	3505	225.50246417904	608
4	3505	225.50246417904	609
4	3505	225.50246417904	610
4	3505	225.50246417904	611
4	3528	226.93010873807	612
4	3528	226.93010873807	613
4	3528	226.93010873807	614
4	3528	226.93010873807	615
4	3554	228.331006964178	616
4	3554	228.331006964178	617
4	3554	228.331006964178	618
4	3554	228.331006964178	619
4	3573	229.65612857376	620
4	3573	229.65612857376	621
4	3573	229.65612857376	622
4	3573	229.65612857376	623
4	3600	231.235790193416	624
4	3600	231.235790193416	625
4	3600	231.235790193416	626
4	3600	231.235790193416	627
4	3625	232.783293675695	628
4	3625	232.783293675695	629
4	3625	232.783293675695	630
4	3625	232.783293675695	631
4	3642	233.771005742877	632
4	3642	233.771005742877	633
4	3642	233.771005742877	634
4	3642	233.771005742877	635
4	3665	234.89754703162	636
4	3665	234.89754703162	637
4	3665	234.89754703162	638
4	3665	234.89754703162	639
4	3692	236.823457797934	640
4	3692	236.823457797934	641
4	3692	236.823457797934	642
4	3692	236.823457797934	643
4	3713	238.064834316611	644
4	3713	238.064834316611	645
4	3713	238.064834316611	646
4	3713	238.064834316611	647
4	3736	239.204109950326	648
4	3736	239.204109950326	649
4	3736	239.204109950326	650
4	3736	239.204109950326	651
5	20	0.152840579379	0
5	20	0.152840579379	1
5	20	0.152840579379	2
5	40	2.160178870814	3
5	40	2.160178870814	4
5	40	2.160178870814	5
5	64	3.34233117391	6
5	64	3.34233117391	7
5	64	3.34233117391	8
5	83	4.854516338516	9
5	83	4.854516338516	10
5	83	4.854516338516	11
5	110	6.181189954596	12
5	110	6.181189954596	13
5	110	6.181189954596	14
5	131	7.270831283317	15
5	131	7.270831283317	16
5	131	7.270831283317	17
5	158	8.875542340723	18
5	158	8.875542340723	19
5	158	8.875542340723	20
5	175	10.741569602739	21
5	175	10.741569602739	22
5	175	10.741569602739	23
5	200	12.38756625609	24
5	200	12.38756625609	25
5	200	12.38756625609	26
5	224	13.721418937479	27
5	224	13.721418937479	28
5	224	13.721418937479	29
5	246	15.617152933159	30
5	246	15.617152933159	31
5	246	15.617152933159	32
5	273	17.137960232756	33
5	273	17.137960232756	34
5	273	17.137960232756	35
5	296	18.968276820681	36
5	296	18.968276820681	37
5	296	18.968276820681	38
5	319	20.775698506398	39
5	319	20.775698506398	40
5	319	20.775698506398	41
5	342	21.834335541403	42
5	342	21.834335541403	43
5	342	21.834335541403	44
5	360	23.004123784015	45
5	360	23.004123784015	46
5	360	23.004123784015	47
5	381	24.378951466032	48
5	381	24.378951466032	49
5	381	24.378951466032	50
5	404	25.472412528066	51
5	404	25.472412528066	52
5	404	25.472412528066	53
5	430	26.507133598418	54
5	430	26.507133598418	55
5	430	26.507133598418	56
5	453	27.94385639599	57
5	453	27.94385639599	58
5	453	27.94385639599	59
5	480	28.962182287652	60
5	480	28.962182287652	61
5	480	28.962182287652	62
5	503	30.386661684697	63
5	503	30.386661684697	64
5	503	30.386661684697	65
5	526	31.983198605295	66
5	526	31.983198605295	67
5	526	31.983198605295	68
5	549	33.057746183958	69
5	549	33.057746183958	70
5	549	33.057746183958	71
5	567	34.377553848155	72
5	567	34.377553848155	73
5	567	34.377553848155	74
5	595	35.655746185804	75
5	595	35.655746185804	76
5	595	35.655746185804	77
5	614	37.235724056221	78
5	614	37.235724056221	79
5	614	37.235724056221	80
5	641	38.505899741035	81
5	641	38.505899741035	82
5	641	38.505899741035	83
5	664	40.429961315231	84
5	664	40.429961315231	85
5	664	40.429961315231	86
5	687	41.725658048471	87
5	687	41.725658048471	88
5	687	41.725658048471	89
5	702	43.51768631213	90
5	702	43.51768631213	91
5	702	43.51768631213	92
5	733	45.278454605681	93
5	733	45.278454605681	94
5	733	45.278454605681	95
5	754	46.680557437096	96
5	754	46.680557437096	97
5	754	46.680557437096	98
5	775	48.492853199766	99
5	775	48.492853199766	100
5	775	48.492853199766	101
5	799	49.944080014417	102
5	799	49.944080014417	103
5	799	49.944080014417	104
5	820	51.235053905961	105
5	820	51.235053905961	106
5	820	51.235053905961	107
5	842	52.963293643415	108
5	842	52.963293643415	109
5	842	52.963293643415	110
5	865	54.698640993461	111
5	865	54.698640993461	112
5	865	54.698640993461	113
5	894	55.727038618318	114
5	894	55.727038618318	115
5	894	55.727038618318	116
5	911	57.363292626943	117
5	911	57.363292626943	118
5	911	57.363292626943	119
5	936	58.534699591871	120
5	936	58.534699591871	121
5	936	58.534699591871	122
5	956	60.409529806958	123
5	956	60.409529806958	124
5	956	60.409529806958	125
5	984	61.859349047512	126
5	984	61.859349047512	127
5	984	61.859349047512	128
5	1006	63.131854356481	129
5	1006	63.131854356481	130
5	1006	63.131854356481	131
5	1029	65.040824415808	132
5	1029	65.040824415808	133
5	1029	65.040824415808	134
5	1055	66.265360537613	135
5	1055	66.265360537613	136
5	1055	66.265360537613	137
5	1073	67.80213063255	138
5	1073	67.80213063255	139
5	1073	67.80213063255	140
5	1097	69.099059787239	141
5	1097	69.099059787239	142
5	1097	69.099059787239	143
5	1119	70.842721358372	144
5	1119	70.842721358372	145
5	1119	70.842721358372	146
5	1140	72.087576091973	147
5	1140	72.087576091973	148
5	1140	72.087576091973	149
5	1168	73.766500154402	150
5	1168	73.766500154402	151
5	1168	73.766500154402	152
5	1189	75.007339952714	153
5	1189	75.007339952714	154
5	1189	75.007339952714	155
5	1216	76.395813378665	156
5	1216	76.395813378665	157
5	1216	76.395813378665	158
5	1239	77.560668477786	159
5	1239	77.560668477786	160
5	1239	77.560668477786	161
5	1258	78.977780857666	162
5	1258	78.977780857666	163
5	1258	78.977780857666	164
5	1281	80.33868723077	165
5	1281	80.33868723077	166
5	1281	80.33868723077	167
5	1303	81.738573392737	168
5	1303	81.738573392737	169
5	1303	81.738573392737	170
5	1326	83.315042275258	171
5	1326	83.315042275258	172
5	1326	83.315042275258	173
5	1354	84.975313103899	174
5	1354	84.975313103899	175
5	1354	84.975313103899	176
5	1370	86.159836891268	177
5	1370	86.159836891268	178
5	1370	86.159836891268	179
5	1400	88.029582566775	180
5	1400	88.029582566775	181
5	1400	88.029582566775	182
5	1417	89.716241875324	183
5	1417	89.716241875324	184
5	1417	89.716241875324	185
5	1442	91.340934483653	186
5	1442	91.340934483653	187
5	1442	91.340934483653	188
5	1463	93.058493007203	189
5	1463	93.058493007203	190
5	1463	93.058493007203	191
5	1488	94.567033809556	192
5	1488	94.567033809556	193
5	1488	94.567033809556	194
5	1510	96.409143135787	195
5	1510	96.409143135787	196
5	1510	96.409143135787	197
5	1538	97.6742684669	198
5	1538	97.6742684669	199
5	1538	97.6742684669	200
5	1561	99.216195531556	201
5	1561	99.216195531556	202
5	1561	99.216195531556	203
5	1584	100.896206882839	204
5	1584	100.896206882839	205
5	1584	100.896206882839	206
5	1607	102.061216900959	207
5	1607	102.061216900959	208
5	1607	102.061216900959	209
5	1626	103.29814050854	210
5	1626	103.29814050854	211
5	1626	103.29814050854	212
5	1650	104.788493123215	213
5	1650	104.788493123215	214
5	1650	104.788493123215	215
5	1672	105.916034786471	216
5	1672	105.916034786471	217
5	1672	105.916034786471	218
5	1692	107.076399389991	219
5	1692	107.076399389991	220
5	1692	107.076399389991	221
5	1715	108.24631889279	222
5	1715	108.24631889279	223
5	1715	108.24631889279	224
5	1741	110.064748485356	225
5	1741	110.064748485356	226
5	1741	110.064748485356	227
5	1763	111.665067837806	228
5	1763	111.665067837806	229
5	1763	111.665067837806	230
5	1791	113.233057040985	231
5	1791	113.233057040985	232
5	1791	113.233057040985	233
5	1810	114.767904196537	234
5	1810	114.767904196537	235
5	1810	114.767904196537	236
5	1837	116.685869550212	237
5	1837	116.685869550212	238
5	1837	116.685869550212	239
5	1856	117.72637074033	240
5	1856	117.72637074033	241
5	1856	117.72637074033	242
5	1883	119.091427249154	243
5	1883	119.091427249154	244
5	1883	119.091427249154	245
5	1906	120.109622695544	246
5	1906	120.109622695544	247
5	1906	120.109622695544	248
5	1929	121.935819234356	249
5	1929	121.935819234356	250
5	1929	121.935819234356	251
5	1952	123.017868362794	252
5	1952	123.017868362794	253
5	1952	123.017868362794	254
5	1970	124.2865733191	255
5	1970	124.2865733191	256
5	1970	124.2865733191	257
5	1996	125.502833493289	258
5	1996	125.502833493289	259
5	1996	125.502833493289	260
5	2016	127.234352182525	261
5	2016	127.234352182525	262
5	2016	127.234352182525	263
5	2044	129.119595426197	264
5	2044	129.119595426197	265
5	2044	129.119595426197	266
5	2064	130.279820219865	267
5	2064	130.279820219865	268
5	2064	130.279820219865	269
5	2090	131.773785396287	270
5	2090	131.773785396287	271
5	2090	131.773785396287	272
5	2113	133.285296582347	273
5	2113	133.285296582347	274
5	2113	133.285296582347	275
5	2133	134.589705237906	276
5	2133	134.589705237906	277
5	2133	134.589705237906	278
5	2154	136.080649143608	279
5	2154	136.080649143608	280
5	2154	136.080649143608	281
5	2179	137.121865146109	282
5	2179	137.121865146109	283
5	2179	137.121865146109	284
5	2199	138.544946732992	285
5	2199	138.544946732992	286
5	2199	138.544946732992	287
5	2222	140.145938288964	288
5	2222	140.145938288964	289
5	2222	140.145938288964	290
5	2249	141.322410037038	291
5	2249	141.322410037038	292
5	2249	141.322410037038	293
5	2271	142.371239625333	294
5	2271	142.371239625333	295
5	2271	142.371239625333	296
5	2297	144.079718348725	297
5	2297	144.079718348725	298
5	2297	144.079718348725	299
5	2320	145.844625173663	300
5	2320	145.844625173663	301
5	2320	145.844625173663	302
5	2336	146.965933027901	303
5	2336	146.965933027901	304
5	2336	146.965933027901	305
5	2363	148.105298919983	306
5	2363	148.105298919983	307
5	2363	148.105298919983	308
5	2389	149.609741426183	309
5	2389	149.609741426183	310
5	2389	149.609741426183	311
5	2412	150.879808152531	312
5	2412	150.879808152531	313
5	2412	150.879808152531	314
5	2435	152.415971058578	315
5	2435	152.415971058578	316
5	2435	152.415971058578	317
5	2458	153.74793097162	318
5	2458	153.74793097162	319
5	2458	153.74793097162	320
5	2474	154.914879134079	321
5	2474	154.914879134079	322
5	2474	154.914879134079	323
5	2498	156.604786125318	324
5	2498	156.604786125318	325
5	2498	156.604786125318	326
5	2521	158.323633871669	327
5	2521	158.323633871669	328
5	2521	158.323633871669	329
5	2544	159.572324637936	330
5	2544	159.572324637936	331
5	2544	159.572324637936	332
5	2573	161.385941403739	333
5	2573	161.385941403739	334
5	2573	161.385941403739	335
5	2592	162.640135099586	336
5	2592	162.640135099586	337
5	2592	162.640135099586	338
5	2615	163.969592356149	339
5	2615	163.969592356149	340
5	2615	163.969592356149	341
5	2639	165.525006739816	342
5	2639	165.525006739816	343
5	2639	165.525006739816	344
5	2665	166.829928847676	345
5	2665	166.829928847676	346
5	2665	166.829928847676	347
5	2688	167.996392700578	348
5	2688	167.996392700578	349
5	2688	167.996392700578	350
5	2711	169.546732141993	351
5	2711	169.546732141993	352
5	2711	169.546732141993	353
5	2731	171.10581628698	354
5	2731	171.10581628698	355
5	2731	171.10581628698	356
5	2753	172.671757079385	357
5	2753	172.671757079385	358
5	2753	172.671757079385	359
5	2775	174.593502805712	360
5	2775	174.593502805712	361
5	2775	174.593502805712	362
5	2797	175.868668774668	363
5	2797	175.868668774668	364
5	2797	175.868668774668	365
5	2822	177.678159273333	366
5	2822	177.678159273333	367
5	2822	177.678159273333	368
5	2844	178.932550800386	369
5	2844	178.932550800386	370
5	2844	178.932550800386	371
5	2872	180.777441023931	372
5	2872	180.777441023931	373
5	2872	180.777441023931	374
5	2895	181.988641826942	375
5	2895	181.988641826942	376
5	2895	181.988641826942	377
5	2918	183.18228118827	378
5	2918	183.18228118827	379
5	2918	183.18228118827	380
5	2941	184.672800408132	381
5	2941	184.672800408132	382
5	2941	184.672800408132	383
5	2961	186.503788674229	384
5	2961	186.503788674229	385
5	2961	186.503788674229	386
5	2987	187.808800292788	387
5	2987	187.808800292788	388
5	2987	187.808800292788	389
5	3006	189.731718302481	390
5	3006	189.731718302481	391
5	3006	189.731718302481	392
5	3029	191.310139287847	393
5	3029	191.310139287847	394
5	3029	191.310139287847	395
5	3052	193.097081817597	396
5	3052	193.097081817597	397
5	3052	193.097081817597	398
5	3073	194.581155603771	399
5	3073	194.581155603771	400
5	3073	194.581155603771	401
5	3095	196.256830225176	402
5	3095	196.256830225176	403
5	3095	196.256830225176	404
5	3122	198.173488541929	405
5	3122	198.173488541929	406
5	3122	198.173488541929	407
5	3142	199.971082197771	408
5	3142	199.971082197771	409
5	3142	199.971082197771	410
5	3171	201.34974396978	411
5	3171	201.34974396978	412
5	3171	201.34974396978	413
5	3194	202.930231835947	414
5	3194	202.930231835947	415
5	3194	202.930231835947	416
5	3217	204.164828984393	417
5	3217	204.164828984393	418
5	3217	204.164828984393	419
5	3240	206.113846374763	420
5	3240	206.113846374763	421
5	3240	206.113846374763	422
5	3263	208.059320250031	423
5	3263	208.059320250031	424
5	3263	208.059320250031	425
5	3282	209.712784755171	426
5	3282	209.712784755171	427
5	3282	209.712784755171	428
5	3309	211.343684276383	429
5	3309	211.343684276383	430
5	3309	211.343684276383	431
5	3332	213.198954304951	432
5	3332	213.198954304951	433
5	3332	213.198954304951	434
5	3352	214.637327001625	435
5	3352	214.637327001625	436
5	3352	214.637327001625	437
5	3375	216.374972679911	438
5	3375	216.374972679911	439
5	3375	216.374972679911	440
5	3398	217.744697511216	441
5	3398	217.744697511216	442
5	3398	217.744697511216	443
5	3420	219.72280609894	444
5	3420	219.72280609894	445
5	3420	219.72280609894	446
5	3443	221.265301107322	447
5	3443	221.265301107322	448
5	3443	221.265301107322	449
5	3470	222.403399637601	450
5	3470	222.403399637601	451
5	3470	222.403399637601	452
5	3488	224.072176919676	453
5	3488	224.072176919676	454
5	3488	224.072176919676	455
5	3516	225.525409337951	456
5	3516	225.525409337951	457
5	3516	225.525409337951	458
5	3539	226.94656747112	459
5	3539	226.94656747112	460
5	3539	226.94656747112	461
5	3558	228.338479072603	462
5	3558	228.338479072603	463
5	3558	228.338479072603	464
5	3580	229.668708591239	465
5	3580	229.668708591239	466
5	3580	229.668708591239	467
5	3604	231.241477519597	468
5	3604	231.241477519597	469
5	3604	231.241477519597	470
5	3624	232.78265331063	471
5	3624	232.78265331063	472
5	3624	232.78265331063	473
5	3651	233.793856163109	474
5	3651	233.793856163109	475
5	3651	233.793856163109	476
5	3677	234.937247641818	477
5	3677	234.937247641818	478
5	3677	234.937247641818	479
5	3700	236.838785977844	480
5	3700	236.838785977844	481
5	3700	236.838785977844	482
5	3719	238.073067238351	483
5	3719	238.073067238351	484
5	3719	238.073067238351	485
5	3746	239.221674083063	486
5	3746	239.221674083063	487
5	3746	239.221674083063	488
6	23	0.162840579379	0
6	46	2.170178870814	1
6	69	3.35233117391	2
6	92	4.864516338516	3
6	115	6.191189954596	4
6	134	7.280831283317	5
6	161	8.885542340723	6
6	184	10.751569602739	7
6	204	12.39756625609	8
6	230	13.731418937479	9
6	253	15.627152933159	10
6	276	17.147960232756	11
6	299	18.978276820681	12
6	322	20.785698506398	13
6	345	21.844335541403	14
6	364	23.014123784015	15
6	389	24.388951466032	16
6	411	25.482412528066	17
6	433	26.517133598418	18
6	457	27.95385639599	19
6	483	28.972182287652	20
6	506	30.396661684697	21
6	529	31.993198605295	22
6	552	33.067746183958	23
6	575	34.387553848155	24
6	598	35.665746185804	25
6	621	37.245724056221	26
6	644	38.515899741035	27
6	667	40.439961315231	28
6	690	41.735658048471	29
6	707	43.52768631213	30
6	736	45.288454605681	31
6	759	46.690557437096	32
6	782	48.502853199766	33
6	805	49.954080014417	34
6	828	51.245053905961	35
6	848	52.973293643415	36
6	871	54.708640993461	37
6	897	55.737038618318	38
6	920	57.373292626943	39
6	940	58.544699591871	40
6	962	60.419529806958	41
6	989	61.869349047512	42
6	1012	63.141854356481	43
6	1035	65.050824415808	44
6	1058	66.275360537613	45
6	1077	67.81213063255	46
6	1104	69.109059787239	47
6	1127	70.852721358372	48
6	1148	72.097576091973	49
6	1173	73.776500154402	50
6	1192	75.017339952714	51
6	1219	76.405813378665	52
6	1242	77.570668477786	53
6	1265	78.987780857666	54
6	1288	80.34868723077	55
6	1311	81.748573392737	56
6	1334	83.325042275258	57
6	1357	84.985313103899	58
6	1378	86.169836891268	59
6	1403	88.039582566775	60
6	1426	89.726241875324	61
6	1449	91.350934483653	62
6	1470	93.068493007203	63
6	1492	94.577033809556	64
6	1518	96.419143135787	65
6	1541	97.6842684669	66
6	1564	99.226195531556	67
6	1587	100.906206882839	68
6	1610	102.071216900959	69
6	1633	103.30814050854	70
6	1656	104.798493123215	71
6	1679	105.926034786471	72
6	1698	107.086399389991	73
6	1718	108.25631889279	74
6	1748	110.074748485356	75
6	1771	111.675067837806	76
6	1794	113.243057040985	77
6	1814	114.777904196537	78
6	1840	116.695869550212	79
6	1863	117.73637074033	80
6	1886	119.101427249154	81
6	1909	120.119622695544	82
6	1932	121.945819234356	83
6	1955	123.027868362794	84
6	1973	124.2965733191	85
6	2001	125.512833493289	86
6	2024	127.244352182525	87
6	2047	129.129595426197	88
6	2070	130.289820219865	89
6	2093	131.783785396287	90
6	2116	133.295296582347	91
6	2137	134.599705237906	92
6	2162	136.090649143608	93
6	2185	137.131865146109	94
6	2208	138.554946732992	95
6	2229	140.155938288964	96
6	2254	141.332410037038	97
6	2277	142.381239625333	98
6	2300	144.089718348725	99
6	2323	145.854625173663	100
6	2341	146.975933027901	101
6	2369	148.115298919983	102
6	2392	149.619741426183	103
6	2415	150.889808152531	104
6	2438	152.425971058578	105
6	2461	153.75793097162	106
6	2482	154.924879134079	107
6	2507	156.614786125318	108
6	2530	158.333633871669	109
6	2550	159.582324637936	110
6	2576	161.395941403739	111
6	2599	162.650135099586	112
6	2622	163.979592356149	113
6	2645	165.535006739816	114
6	2668	166.839928847676	115
6	2691	168.006392700578	116
6	2714	169.556732141993	117
6	2737	171.11581628698	118
6	2756	172.681757079385	119
6	2779	174.603502805712	120
6	2803	175.878668774668	121
6	2829	177.688159273333	122
6	2848	178.942550800386	123
6	2875	180.787441023931	124
6	2898	181.998641826942	125
6	2921	183.19228118827	126
6	2944	184.682800408132	127
6	2967	186.513788674229	128
6	2990	187.818800292788	129
6	3009	189.741718302481	130
6	3036	191.320139287847	131
6	3059	193.107081817597	132
6	3082	194.591155603771	133
6	3100	196.266830225176	134
6	3128	198.183488541929	135
6	3151	199.981082197771	136
6	3174	201.35974396978	137
6	3197	202.940231835947	138
6	3220	204.174828984393	139
6	3243	206.123846374763	140
6	3266	208.069320250031	141
6	3286	209.722784755171	142
6	3312	211.353684276383	143
6	3335	213.208954304951	144
6	3358	214.647327001625	145
6	3381	216.384972679911	146
6	3404	217.754697511216	147
6	3427	219.73280609894	148
6	3447	221.275301107322	149
6	3473	222.413399637601	150
6	3496	224.082176919676	151
6	3519	225.535409337951	152
6	3542	226.95656747112	153
6	3565	228.348479072603	154
6	3588	229.678708591239	155
6	3611	231.251477519597	156
6	3630	232.79265331063	157
6	3655	233.803856163109	158
6	3680	234.947247641818	159
6	3703	236.848785977844	160
6	3726	238.083067238351	161
6	3749	239.231674083063	162

