version 2
run General-4-20230921-21:38:14-5979
attr configname General
attr datetime 20230921-21:38:14
attr experiment General
attr inifile omnetpp.ini
attr iterationvars ""
attr iterationvarsf ""
attr measurement ""
attr network Network2
attr processid 5979
attr repetition 4
attr replication #4
attr resultdir results
attr runnumber 4
attr seedset 4
param Network2.node[*].transmissionTime "uniform(1s, 2s)"
param Network2.node[*].delayTime "uniform(0.01s, 0.2s)"
param Network2.node[*].processingTime exponential(0.01s)
param Network2.node[*].lossProbability 0.0

vector 0 Network2.node[0] txVector ETV
vector 1 Network2.node[1] txVector ETV
vector 2 Network2.node[6] txVector ETV
vector 3 Network2.node[3] txVector ETV
vector 4 Network2.node[2] txVector ETV
vector 5 Network2.node[4] txVector ETV
vector 6 Network2.node[5] rxVector ETV
0	1	0.193735669288	0
0	24	2.094357123985	1
0	47	3.957350359219	2
0	70	5.403699559779	3
0	93	6.948902213634	4
0	116	8.307668586881	5
0	139	10.137856684313	6
0	162	11.233054761696	7
0	185	12.342872881019	8
0	208	14.27028149149	9
0	231	16.249897754673	10
0	254	18.005257147985	11
0	277	19.548547461784	12
0	300	21.484441295887	13
0	323	22.558093671842	14
0	346	24.226205923517	15
0	369	25.863054591619	16
0	392	27.652507099944	17
0	415	28.985963479771	18
0	438	30.849310602217	19
0	461	32.774495731496	20
0	484	34.566496310445	21
0	507	36.202630324677	22
0	530	37.77591392879	23
0	553	39.221270972785	24
0	576	41.179030724956	25
0	599	42.30224735771	26
0	622	43.961282884857	27
0	645	45.076911538761	28
0	668	46.199361486049	29
0	691	48.044900580464	30
0	714	49.840813386176	31
0	737	50.862283270961	32
0	760	52.169228484776	33
0	783	54.04161246765	34
0	806	55.723551673736	35
0	829	57.685226266659	36
0	852	59.574882105612	37
0	875	60.744155669738	38
0	898	62.566468611978	39
0	921	64.027169082699	40
0	944	65.801226261224	41
0	967	67.611308527098	42
0	990	68.985337884783	43
0	1013	70.563008428703	44
0	1036	71.8103022684	45
0	1059	73.186677887955	46
0	1082	75.012730666355	47
0	1105	76.013637341478	48
0	1128	77.627730687301	49
0	1151	79.618398504018	50
0	1174	80.639571953484	51
0	1197	82.173662062421	52
0	1220	83.655422490475	53
0	1243	84.726160476602	54
0	1266	85.740627703409	55
0	1289	87.032572501957	56
0	1312	88.176479807509	57
0	1335	90.040622647073	58
0	1358	91.172002543848	59
0	1381	92.764076935979	60
0	1404	93.890581915308	61
0	1427	95.867739797956	62
0	1450	97.177879428644	63
0	1473	98.890911325733	64
0	1496	100.223699890696	65
0	1519	102.117990805688	66
0	1542	103.92993722755	67
0	1565	105.020853205738	68
0	1588	106.120534291179	69
0	1611	107.532969764355	70
0	1634	109.377080789921	71
0	1657	110.784174000067	72
0	1680	112.026597548896	73
0	1703	113.915395749421	74
0	1726	115.520832528514	75
0	1749	116.802999685905	76
0	1772	118.331965020779	77
0	1795	119.352938932521	78
0	1818	120.579016746642	79
0	1841	122.412229322284	80
0	1864	124.271098000617	81
0	1887	125.465247452413	82
0	1910	126.590551819108	83
0	1933	128.11591921832	84
0	1956	129.181334905481	85
0	1979	130.362757599136	86
0	2002	131.418999354277	87
0	2025	133.037485263232	88
0	2048	135.026429771367	89
0	2071	136.961901134034	90
0	2094	138.336080470975	91
0	2117	139.885447342103	92
0	2140	141.77596132007	93
0	2163	143.14141058099	94
0	2186	144.838586955718	95
0	2209	145.929447911834	96
0	2232	147.194978435678	97
0	2255	148.583132501613	98
0	2278	150.183925247673	99
0	2301	151.439936009158	100
0	2324	153.432388551456	101
0	2347	155.3743406268	102
0	2370	156.960433617623	103
0	2393	158.117545071214	104
0	2416	159.983807992579	105
0	2439	161.149086513014	106
0	2462	162.633075181551	107
0	2485	163.69534145125	108
0	2508	164.800180584582	109
0	2531	166.18793463583	110
0	2554	168.14961083156	111
0	2577	169.98906251478	112
0	2600	171.238093858277	113
0	2623	172.876866555931	114
0	2646	174.077096722247	115
0	2669	175.424387847232	116
0	2692	177.345676433919	117
0	2715	178.739829498501	118
0	2738	180.382404627902	119
0	2761	182.176401919145	120
0	2784	183.651686597774	121
0	2807	185.270144403139	122
0	2830	186.477455823608	123
0	2853	188.257488859743	124
0	2876	189.964035282536	125
0	2899	191.595029960312	126
0	2922	192.765258656507	127
0	2945	194.043867690879	128
0	2968	195.131991805433	129
0	2991	196.774780396064	130
0	3014	198.139694058494	131
0	3037	200.01544916273	132
0	3060	201.514229257981	133
0	3083	202.614693744498	134
0	3106	204.370250944205	135
0	3129	206.053590586566	136
0	3152	207.866258094477	137
0	3175	209.222810273914	138
0	3198	210.953621216508	139
0	3221	212.354581986944	140
0	3244	213.602997854509	141
0	3267	215.068001679767	142
0	3290	217.039362173451	143
0	3313	218.084085819235	144
0	3336	219.139676284434	145
0	3359	220.194180443806	146
0	3382	221.403775117283	147
0	3405	222.700961905687	148
0	3428	224.041112535789	149
0	3451	225.36316932474	150
0	3474	227.278581725356	151
0	3497	229.121113405718	152
0	3520	230.963219807871	153
0	3543	232.177362671044	154
0	3566	233.985850933628	155
0	3589	235.169905425902	156
0	3612	236.8604192875	157
0	3635	238.198934798981	158
0	3658	239.33346928136	159
1	3	0.205631491707	0
1	3	0.205631491707	1
1	3	0.205631491707	2
1	3	0.205631491707	3
1	26	2.145341055476	4
1	26	2.145341055476	5
1	26	2.145341055476	6
1	26	2.145341055476	7
1	49	3.973172654166	8
1	49	3.973172654166	9
1	49	3.973172654166	10
1	49	3.973172654166	11
1	72	5.421131426793	12
1	72	5.421131426793	13
1	72	5.421131426793	14
1	72	5.421131426793	15
1	95	6.959770535871	16
1	95	6.959770535871	17
1	95	6.959770535871	18
1	95	6.959770535871	19
1	118	8.323060431608	20
1	118	8.323060431608	21
1	118	8.323060431608	22
1	118	8.323060431608	23
1	141	10.150308407042	24
1	141	10.150308407042	25
1	141	10.150308407042	26
1	141	10.150308407042	27
1	164	11.254575627035	28
1	164	11.254575627035	29
1	164	11.254575627035	30
1	164	11.254575627035	31
1	187	12.35482583028	32
1	187	12.35482583028	33
1	187	12.35482583028	34
1	187	12.35482583028	35
1	210	14.29005169236	36
1	210	14.29005169236	37
1	210	14.29005169236	38
1	210	14.29005169236	39
1	233	16.284848755988	40
1	233	16.284848755988	41
1	233	16.284848755988	42
1	233	16.284848755988	43
1	256	18.01560179561	44
1	256	18.01560179561	45
1	256	18.01560179561	46
1	256	18.01560179561	47
1	279	19.565478162703	48
1	279	19.565478162703	49
1	279	19.565478162703	50
1	279	19.565478162703	51
1	302	21.495888693968	52
1	302	21.495888693968	53
1	302	21.495888693968	54
1	302	21.495888693968	55
1	325	22.571162463599	56
1	325	22.571162463599	57
1	325	22.571162463599	58
1	325	22.571162463599	59
1	348	24.267397268279	60
1	348	24.267397268279	61
1	348	24.267397268279	62
1	348	24.267397268279	63
1	371	25.873976956924	64
1	371	25.873976956924	65
1	371	25.873976956924	66
1	371	25.873976956924	67
1	394	27.684234449775	68
1	394	27.684234449775	69
1	394	27.684234449775	70
1	394	27.684234449775	71
1	417	29.004821929368	72
1	417	29.004821929368	73
1	417	29.004821929368	74
1	417	29.004821929368	75
1	440	30.866462610518	76
1	440	30.866462610518	77
1	440	30.866462610518	78
1	440	30.866462610518	79
1	463	32.846734704993	80
1	463	32.846734704993	81
1	463	32.846734704993	82
1	463	32.846734704993	83
1	486	34.577921651333	84
1	486	34.577921651333	85
1	486	34.577921651333	86
1	486	34.577921651333	87
1	509	36.217766939228	88
1	509	36.217766939228	89
1	509	36.217766939228	90
1	509	36.217766939228	91
1	532	37.804369117569	92
1	532	37.804369117569	93
1	532	37.804369117569	94
1	532	37.804369117569	95
1	555	39.234028887665	96
1	555	39.234028887665	97
1	555	39.234028887665	98
1	555	39.234028887665	99
1	578	41.212832106344	100
1	578	41.212832106344	101
1	578	41.212832106344	102
1	578	41.212832106344	103
1	601	42.315428007878	104
1	601	42.315428007878	105
1	601	42.315428007878	106
1	601	42.315428007878	107
1	624	43.983565534492	108
1	624	43.983565534492	109
1	624	43.983565534492	110
1	624	43.983565534492	111
1	647	45.087970450186	112
1	647	45.087970450186	113
1	647	45.087970450186	114
1	647	45.087970450186	115
1	670	46.214733906319	116
1	670	46.214733906319	117
1	670	46.214733906319	118
1	670	46.214733906319	119
1	693	48.054908392459	120
1	693	48.054908392459	121
1	693	48.054908392459	122
1	693	48.054908392459	123
1	716	49.858085530794	124
1	716	49.858085530794	125
1	716	49.858085530794	126
1	716	49.858085530794	127
1	739	50.887913793579	128
1	739	50.887913793579	129
1	739	50.887913793579	130
1	739	50.887913793579	131
1	762	52.182931747146	132
1	762	52.182931747146	133
1	762	52.182931747146	134
1	762	52.182931747146	135
1	785	54.059780893723	136
1	785	54.059780893723	137
1	785	54.059780893723	138
1	785	54.059780893723	139
1	808	55.739993854891	140
1	808	55.739993854891	141
1	808	55.739993854891	142
1	808	55.739993854891	143
1	831	57.695819646558	144
1	831	57.695819646558	145
1	831	57.695819646558	146
1	831	57.695819646558	147
1	854	59.586891952027	148
1	854	59.586891952027	149
1	854	59.586891952027	150
1	854	59.586891952027	151
1	877	60.774964289488	152
1	877	60.774964289488	153
1	877	60.774964289488	154
1	877	60.774964289488	155
1	900	62.590960672287	156
1	900	62.590960672287	157
1	900	62.590960672287	158
1	900	62.590960672287	159
1	923	64.070184910356	160
1	923	64.070184910356	161
1	923	64.070184910356	162
1	923	64.070184910356	163
1	946	65.83356392422	164
1	946	65.83356392422	165
1	946	65.83356392422	166
1	946	65.83356392422	167
1	969	67.62843728625	168
1	969	67.62843728625	169
1	969	67.62843728625	170
1	969	67.62843728625	171
1	992	68.997924523457	172
1	992	68.997924523457	173
1	992	68.997924523457	174
1	992	68.997924523457	175
1	1015	70.579160920773	176
1	1015	70.579160920773	177
1	1015	70.579160920773	178
1	1015	70.579160920773	179
1	1038	71.821593949782	180
1	1038	71.821593949782	181
1	1038	71.821593949782	182
1	1038	71.821593949782	183
1	1061	73.203495346031	184
1	1061	73.203495346031	185
1	1061	73.203495346031	186
1	1061	73.203495346031	187
1	1084	75.060279580397	188
1	1084	75.060279580397	189
1	1084	75.060279580397	190
1	1084	75.060279580397	191
1	1107	76.028233920946	192
1	1107	76.028233920946	193
1	1107	76.028233920946	194
1	1107	76.028233920946	195
1	1130	77.662944345922	196
1	1130	77.662944345922	197
1	1130	77.662944345922	198
1	1130	77.662944345922	199
1	1153	79.636758545568	200
1	1153	79.636758545568	201
1	1153	79.636758545568	202
1	1153	79.636758545568	203
1	1176	80.654281032569	204
1	1176	80.654281032569	205
1	1176	80.654281032569	206
1	1176	80.654281032569	207
1	1199	82.19913454877	208
1	1199	82.19913454877	209
1	1199	82.19913454877	210
1	1199	82.19913454877	211
1	1222	83.666325057689	212
1	1222	83.666325057689	213
1	1222	83.666325057689	214
1	1222	83.666325057689	215
1	1245	84.740756791347	216
1	1245	84.740756791347	217
1	1245	84.740756791347	218
1	1245	84.740756791347	219
1	1268	85.75230684266	220
1	1268	85.75230684266	221
1	1268	85.75230684266	222
1	1268	85.75230684266	223
1	1291	87.04493265277	224
1	1291	87.04493265277	225
1	1291	87.04493265277	226
1	1291	87.04493265277	227
1	1314	88.19298440366	228
1	1314	88.19298440366	229
1	1314	88.19298440366	230
1	1314	88.19298440366	231
1	1337	90.06584174259	232
1	1337	90.06584174259	233
1	1337	90.06584174259	234
1	1337	90.06584174259	235
1	1360	91.19422429762	236
1	1360	91.19422429762	237
1	1360	91.19422429762	238
1	1360	91.19422429762	239
1	1383	92.7867292654	240
1	1383	92.7867292654	241
1	1383	92.7867292654	242
1	1383	92.7867292654	243
1	1406	93.90602751689	244
1	1406	93.90602751689	245
1	1406	93.90602751689	246
1	1406	93.90602751689	247
1	1429	95.893347653505	248
1	1429	95.893347653505	249
1	1429	95.893347653505	250
1	1429	95.893347653505	251
1	1452	97.20237189898	252
1	1452	97.20237189898	253
1	1452	97.20237189898	254
1	1452	97.20237189898	255
1	1475	98.929813863806	256
1	1475	98.929813863806	257
1	1475	98.929813863806	258
1	1475	98.929813863806	259
1	1498	100.243268997465	260
1	1498	100.243268997465	261
1	1498	100.243268997465	262
1	1498	100.243268997465	263
1	1521	102.134653001456	264
1	1521	102.134653001456	265
1	1521	102.134653001456	266
1	1521	102.134653001456	267
1	1544	103.94531794968	268
1	1544	103.94531794968	269
1	1544	103.94531794968	270
1	1544	103.94531794968	271
1	1567	105.039063973283	272
1	1567	105.039063973283	273
1	1567	105.039063973283	274
1	1567	105.039063973283	275
1	1590	106.134413617692	276
1	1590	106.134413617692	277
1	1590	106.134413617692	278
1	1590	106.134413617692	279
1	1613	107.546814552078	280
1	1613	107.546814552078	281
1	1613	107.546814552078	282
1	1613	107.546814552078	283
1	1636	109.391496717944	284
1	1636	109.391496717944	285
1	1636	109.391496717944	286
1	1636	109.391496717944	287
1	1659	110.804769193176	288
1	1659	110.804769193176	289
1	1659	110.804769193176	290
1	1659	110.804769193176	291
1	1682	112.08794693498	292
1	1682	112.08794693498	293
1	1682	112.08794693498	294
1	1682	112.08794693498	295
1	1705	113.925667234883	296
1	1705	113.925667234883	297
1	1705	113.925667234883	298
1	1705	113.925667234883	299
1	1728	115.533466288611	300
1	1728	115.533466288611	301
1	1728	115.533466288611	302
1	1728	115.533466288611	303
1	1751	116.832674081914	304
1	1751	116.832674081914	305
1	1751	116.832674081914	306
1	1751	116.832674081914	307
1	1774	118.350500522029	308
1	1774	118.350500522029	309
1	1774	118.350500522029	310
1	1774	118.350500522029	311
1	1797	119.363902494728	312
1	1797	119.363902494728	313
1	1797	119.363902494728	314
1	1797	119.363902494728	315
1	1820	120.600486994959	316
1	1820	120.600486994959	317
1	1820	120.600486994959	318
1	1820	120.600486994959	319
1	1843	122.423923349752	320
1	1843	122.423923349752	321
1	1843	122.423923349752	322
1	1843	122.423923349752	323
1	1866	124.293210805415	324
1	1866	124.293210805415	325
1	1866	124.293210805415	326
1	1866	124.293210805415	327
1	1889	125.486380430908	328
1	1889	125.486380430908	329
1	1889	125.486380430908	330
1	1889	125.486380430908	331
1	1912	126.607238698974	332
1	1912	126.607238698974	333
1	1912	126.607238698974	334
1	1912	126.607238698974	335
1	1935	128.136140977429	336
1	1935	128.136140977429	337
1	1935	128.136140977429	338
1	1935	128.136140977429	339
1	1958	129.194326490275	340
1	1958	129.194326490275	341
1	1958	129.194326490275	342
1	1958	129.194326490275	343
1	1981	130.376111028296	344
1	1981	130.376111028296	345
1	1981	130.376111028296	346
1	1981	130.376111028296	347
1	2004	131.44026709749	348
1	2004	131.44026709749	349
1	2004	131.44026709749	350
1	2004	131.44026709749	351
1	2027	133.054717704471	352
1	2027	133.054717704471	353
1	2027	133.054717704471	354
1	2027	133.054717704471	355
1	2050	135.046126331016	356
1	2050	135.046126331016	357
1	2050	135.046126331016	358
1	2050	135.046126331016	359
1	2073	136.979181426195	360
1	2073	136.979181426195	361
1	2073	136.979181426195	362
1	2073	136.979181426195	363
1	2096	138.358942554226	364
1	2096	138.358942554226	365
1	2096	138.358942554226	366
1	2096	138.358942554226	367
1	2119	139.919995161292	368
1	2119	139.919995161292	369
1	2119	139.919995161292	370
1	2119	139.919995161292	371
1	2142	141.792341053092	372
1	2142	141.792341053092	373
1	2142	141.792341053092	374
1	2142	141.792341053092	375
1	2165	143.162730062707	376
1	2165	143.162730062707	377
1	2165	143.162730062707	378
1	2165	143.162730062707	379
1	2188	144.853033516908	380
1	2188	144.853033516908	381
1	2188	144.853033516908	382
1	2188	144.853033516908	383
1	2211	145.944795575018	384
1	2211	145.944795575018	385
1	2211	145.944795575018	386
1	2211	145.944795575018	387
1	2234	147.220117626394	388
1	2234	147.220117626394	389
1	2234	147.220117626394	390
1	2234	147.220117626394	391
1	2257	148.610658787071	392
1	2257	148.610658787071	393
1	2257	148.610658787071	394
1	2257	148.610658787071	395
1	2280	150.206331463875	396
1	2280	150.206331463875	397
1	2280	150.206331463875	398
1	2280	150.206331463875	399
1	2303	151.456882881245	400
1	2303	151.456882881245	401
1	2303	151.456882881245	402
1	2303	151.456882881245	403
1	2326	153.442629182691	404
1	2326	153.442629182691	405
1	2326	153.442629182691	406
1	2326	153.442629182691	407
1	2349	155.425774214472	408
1	2349	155.425774214472	409
1	2349	155.425774214472	410
1	2349	155.425774214472	411
1	2372	156.988749650743	412
1	2372	156.988749650743	413
1	2372	156.988749650743	414
1	2372	156.988749650743	415
1	2395	158.127925778841	416
1	2395	158.127925778841	417
1	2395	158.127925778841	418
1	2395	158.127925778841	419
1	2418	160.002131921504	420
1	2418	160.002131921504	421
1	2418	160.002131921504	422
1	2418	160.002131921504	423
1	2441	161.169261480338	424
1	2441	161.169261480338	425
1	2441	161.169261480338	426
1	2441	161.169261480338	427
1	2464	162.64985355979	428
1	2464	162.64985355979	429
1	2464	162.64985355979	430
1	2464	162.64985355979	431
1	2487	163.706509704415	432
1	2487	163.706509704415	433
1	2487	163.706509704415	434
1	2487	163.706509704415	435
1	2510	164.817816304059	436
1	2510	164.817816304059	437
1	2510	164.817816304059	438
1	2510	164.817816304059	439
1	2533	166.216919678133	440
1	2533	166.216919678133	441
1	2533	166.216919678133	442
1	2533	166.216919678133	443
1	2556	168.163851451748	444
1	2556	168.163851451748	445
1	2556	168.163851451748	446
1	2556	168.163851451748	447
1	2579	170.00162490126	448
1	2579	170.00162490126	449
1	2579	170.00162490126	450
1	2579	170.00162490126	451
1	2602	171.254193617552	452
1	2602	171.254193617552	453
1	2602	171.254193617552	454
1	2602	171.254193617552	455
1	2625	172.893237909001	456
1	2625	172.893237909001	457
1	2625	172.893237909001	458
1	2625	172.893237909001	459
1	2648	174.106753111676	460
1	2648	174.106753111676	461
1	2648	174.106753111676	462
1	2648	174.106753111676	463
1	2671	175.43795057729	464
1	2671	175.43795057729	465
1	2671	175.43795057729	466
1	2671	175.43795057729	467
1	2694	177.356266213825	468
1	2694	177.356266213825	469
1	2694	177.356266213825	470
1	2694	177.356266213825	471
1	2717	178.765275518446	472
1	2717	178.765275518446	473
1	2717	178.765275518446	474
1	2717	178.765275518446	475
1	2740	180.405671401951	476
1	2740	180.405671401951	477
1	2740	180.405671401951	478
1	2740	180.405671401951	479
1	2763	182.188607706871	480
1	2763	182.188607706871	481
1	2763	182.188607706871	482
1	2763	182.188607706871	483
1	2786	183.666628260113	484
1	2786	183.666628260113	485
1	2786	183.666628260113	486
1	2786	183.666628260113	487
1	2809	185.284396695338	488
1	2809	185.284396695338	489
1	2809	185.284396695338	490
1	2809	185.284396695338	491
1	2832	186.487882427566	492
1	2832	186.487882427566	493
1	2832	186.487882427566	494
1	2832	186.487882427566	495
1	2855	188.287276423186	496
1	2855	188.287276423186	497
1	2855	188.287276423186	498
1	2855	188.287276423186	499
1	2878	189.975128525944	500
1	2878	189.975128525944	501
1	2878	189.975128525944	502
1	2878	189.975128525944	503
1	2901	191.606156980598	504
1	2901	191.606156980598	505
1	2901	191.606156980598	506
1	2901	191.606156980598	507
1	2924	192.782640372008	508
1	2924	192.782640372008	509
1	2924	192.782640372008	510
1	2924	192.782640372008	511
1	2947	194.061293529512	512
1	2947	194.061293529512	513
1	2947	194.061293529512	514
1	2947	194.061293529512	515
1	2970	195.147665400337	516
1	2970	195.147665400337	517
1	2970	195.147665400337	518
1	2970	195.147665400337	519
1	2993	196.789998545038	520
1	2993	196.789998545038	521
1	2993	196.789998545038	522
1	2993	196.789998545038	523
1	3016	198.160269530542	524
1	3016	198.160269530542	525
1	3016	198.160269530542	526
1	3016	198.160269530542	527
1	3039	200.029248576054	528
1	3039	200.029248576054	529
1	3039	200.029248576054	530
1	3039	200.029248576054	531
1	3062	201.538350124376	532
1	3062	201.538350124376	533
1	3062	201.538350124376	534
1	3062	201.538350124376	535
1	3085	202.627442714615	536
1	3085	202.627442714615	537
1	3085	202.627442714615	538
1	3085	202.627442714615	539
1	3108	204.384734942312	540
1	3108	204.384734942312	541
1	3108	204.384734942312	542
1	3108	204.384734942312	543
1	3131	206.077430626798	544
1	3131	206.077430626798	545
1	3131	206.077430626798	546
1	3131	206.077430626798	547
1	3154	207.876937636544	548
1	3154	207.876937636544	549
1	3154	207.876937636544	550
1	3154	207.876937636544	551
1	3177	209.242607872547	552
1	3177	209.242607872547	553
1	3177	209.242607872547	554
1	3177	209.242607872547	555
1	3200	211.006251790199	556
1	3200	211.006251790199	557
1	3200	211.006251790199	558
1	3200	211.006251790199	559
1	3223	212.374666323154	560
1	3223	212.374666323154	561
1	3223	212.374666323154	562
1	3223	212.374666323154	563
1	3246	213.620570266112	564
1	3246	213.620570266112	565
1	3246	213.620570266112	566
1	3246	213.620570266112	567
1	3269	215.093513510254	568
1	3269	215.093513510254	569
1	3269	215.093513510254	570
1	3269	215.093513510254	571
1	3292	217.052807903094	572
1	3292	217.052807903094	573
1	3292	217.052807903094	574
1	3292	217.052807903094	575
1	3315	218.097277985878	576
1	3315	218.097277985878	577
1	3315	218.097277985878	578
1	3315	218.097277985878	579
1	3338	219.156888352608	580
1	3338	219.156888352608	581
1	3338	219.156888352608	582
1	3338	219.156888352608	583
1	3361	220.210552282658	584
1	3361	220.210552282658	585
1	3361	220.210552282658	586
1	3361	220.210552282658	587
1	3384	221.423935566346	588
1	3384	221.423935566346	589
1	3384	221.423935566346	590
1	3384	221.423935566346	591
1	3407	222.711772389883	592
1	3407	222.711772389883	593
1	3407	222.711772389883	594
1	3407	222.711772389883	595
1	3430	224.062851412348	596
1	3430	224.062851412348	597
1	3430	224.062851412348	598
1	3430	224.062851412348	599
1	3453	225.393667144247	600
1	3453	225.393667144247	601
1	3453	225.393667144247	602
1	3453	225.393667144247	603
1	3476	227.289514179544	604
1	3476	227.289514179544	605
1	3476	227.289514179544	606
1	3476	227.289514179544	607
1	3499	229.139350612916	608
1	3499	229.139350612916	609
1	3499	229.139350612916	610
1	3499	229.139350612916	611
1	3522	230.982648920306	612
1	3522	230.982648920306	613
1	3522	230.982648920306	614
1	3522	230.982648920306	615
1	3545	232.193558404976	616
1	3545	232.193558404976	617
1	3545	232.193558404976	618
1	3545	232.193558404976	619
1	3568	233.996427582364	620
1	3568	233.996427582364	621
1	3568	233.996427582364	622
1	3568	233.996427582364	623
1	3591	235.18350177111	624
1	3591	235.18350177111	625
1	3591	235.18350177111	626
1	3591	235.18350177111	627
1	3614	236.871908892808	628
1	3614	236.871908892808	629
1	3614	236.871908892808	630
1	3614	236.871908892808	631
1	3637	238.220614991783	632
1	3637	238.220614991783	633
1	3637	238.220614991783	634
1	3637	238.220614991783	635
1	3660	239.34746057033	636
1	3660	239.34746057033	637
1	3660	239.34746057033	638
1	3660	239.34746057033	639
2	8	0.218066095948	0
2	8	0.218066095948	1
2	32	2.164822103817	2
2	32	2.164822103817	3
2	59	3.996391968923	4
2	59	3.996391968923	5
2	79	5.435837359764	6
2	79	5.435837359764	7
2	100	6.974278093916	8
2	100	6.974278093916	9
2	124	8.337783205261	10
2	124	8.337783205261	11
2	146	10.160981219784	12
2	146	10.160981219784	13
2	173	11.282362209658	14
2	173	11.282362209658	15
2	193	12.36981449073	16
2	193	12.36981449073	17
2	216	14.31381492726	18
2	216	14.31381492726	19
2	239	16.301112798335	20
2	239	16.301112798335	21
2	262	18.032611593024	22
2	262	18.032611593024	23
2	294	19.601489232512	24
2	294	19.601489232512	25
2	308	21.50846321073	26
2	308	21.50846321073	27
2	332	22.615795573664	28
2	332	22.615795573664	29
2	359	24.298942573868	30
2	359	24.298942573868	31
2	377	25.897239079048	32
2	377	25.897239079048	33
2	399	27.694683612883	34
2	399	27.694683612883	35
2	431	29.044449911644	36
2	431	29.044449911644	37
2	445	30.87752233122	38
2	445	30.87752233122	39
2	469	32.858069933991	40
2	469	32.858069933991	41
2	491	34.598792093873	42
2	491	34.598792093873	43
2	516	36.238075780145	44
2	516	36.238075780145	45
2	550	37.837317705194	46
2	550	37.837317705194	47
2	560	39.246137703054	48
2	560	39.246137703054	49
2	584	41.227600837479	50
2	584	41.227600837479	51
2	611	42.345675142852	52
2	611	42.345675142852	53
2	635	44.017729378484	54
2	635	44.017729378484	55
2	661	45.127457709326	56
2	661	45.127457709326	57
2	680	46.238733340939	58
2	680	46.238733340939	59
2	700	48.075378303389	60
2	700	48.075378303389	61
2	726	49.883390591447	62
2	726	49.883390591447	63
2	744	50.904684037421	64
2	744	50.904684037421	65
2	772	52.20397113912	66
2	772	52.20397113912	67
2	791	54.085961346707	68
2	791	54.085961346707	69
2	814	55.758521895195	70
2	814	55.758521895195	71
2	836	57.708436751651	72
2	836	57.708436751651	73
2	859	59.597364692573	74
2	859	59.597364692573	75
2	882	60.78634523634	76
2	882	60.78634523634	77
2	905	62.603855572231	78
2	905	62.603855572231	79
2	930	64.08693153932	80
2	930	64.08693153932	81
2	951	65.844279259265	82
2	951	65.844279259265	83
2	975	67.648129547628	84
2	975	67.648129547628	85
2	997	69.023142220283	86
2	997	69.023142220283	87
2	1022	70.599345940505	88
2	1022	70.599345940505	89
2	1043	71.840154003054	90
2	1043	71.840154003054	91
2	1068	73.238132551041	92
2	1068	73.238132551041	93
2	1090	75.074400716098	94
2	1090	75.074400716098	95
2	1114	76.048851042536	96
2	1114	76.048851042536	97
2	1141	77.689777579999	98
2	1141	77.689777579999	99
2	1160	79.658746010633	100
2	1160	79.658746010633	101
2	1191	80.70218945231	102
2	1191	80.70218945231	103
2	1204	82.213890903232	104
2	1204	82.213890903232	105
2	1228	83.679586855237	106
2	1228	83.679586855237	107
2	1252	84.754004367472	108
2	1252	84.754004367472	109
2	1274	85.772750722385	110
2	1274	85.772750722385	111
2	1297	87.061154046503	112
2	1297	87.061154046503	113
2	1319	88.206508659471	114
2	1319	88.206508659471	115
2	1344	90.080932585067	116
2	1344	90.080932585067	117
2	1365	91.210947170458	118
2	1365	91.210947170458	119
2	1394	92.812025414483	120
2	1394	92.812025414483	121
2	1418	93.942004170635	122
2	1418	93.942004170635	123
2	1435	95.915133287425	124
2	1435	95.915133287425	125
2	1457	97.213255022986	126
2	1457	97.213255022986	127
2	1482	98.943827923803	128
2	1482	98.943827923803	129
2	1503	100.255287554205	130
2	1503	100.255287554205	131
2	1526	102.144890098599	132
2	1526	102.144890098599	133
2	1550	103.966161902159	134
2	1550	103.966161902159	135
2	1572	105.04927184184	136
2	1572	105.04927184184	137
2	1597	106.153104985569	138
2	1597	106.153104985569	139
2	1624	107.578648075948	140
2	1624	107.578648075948	141
2	1642	109.413512515492	142
2	1642	109.413512515492	143
2	1674	110.850410360603	144
2	1674	110.850410360603	145
2	1688	112.103127129643	146
2	1688	112.103127129643	147
2	1710	113.941965131808	148
2	1710	113.941965131808	149
2	1733	115.54442175475	150
2	1733	115.54442175475	151
2	1758	116.855348288791	152
2	1758	116.855348288791	153
2	1780	118.363542233527	154
2	1780	118.363542233527	155
2	1803	119.37851871772	156
2	1803	119.37851871772	157
2	1831	120.635295405492	158
2	1831	120.635295405492	159
2	1848	122.443748709852	160
2	1848	122.443748709852	161
2	1872	124.306057261274	162
2	1872	124.306057261274	163
2	1896	125.506522795148	164
2	1896	125.506522795148	165
2	1917	126.62389624245	166
2	1917	126.62389624245	167
2	1941	128.16127738374	168
2	1941	128.16127738374	169
2	1965	129.213058214205	170
2	1965	129.213058214205	171
2	1991	130.40462099222	172
2	1991	130.40462099222	173
2	2010	131.467159414236	174
2	2010	131.467159414236	175
2	2033	133.067746629893	176
2	2033	133.067746629893	177
2	2055	135.058610130382	178
2	2055	135.058610130382	179
2	2088	137.016222707229	180
2	2088	137.016222707229	181
2	2101	138.371325603828	182
2	2101	138.371325603828	183
2	2125	139.932005528751	184
2	2125	139.932005528751	185
2	2148	141.805747153497	186
2	2148	141.805747153497	187
2	2171	143.174834977604	188
2	2171	143.174834977604	189
2	2194	144.874226860342	190
2	2194	144.874226860342	191
2	2218	145.961587194256	192
2	2218	145.961587194256	193
2	2240	147.24157472686	194
2	2240	147.24157472686	195
2	2262	148.623225760747	196
2	2262	148.623225760747	197
2	2286	150.224103980788	198
2	2286	150.224103980788	199
2	2317	151.49913181569	200
2	2317	151.49913181569	201
2	2331	153.454083071751	202
2	2331	153.454083071751	203
2	2354	155.439472580181	204
2	2354	155.439472580181	205
2	2378	157.012434453667	206
2	2378	157.012434453667	207
2	2400	158.13980614551	208
2	2400	158.13980614551	209
2	2424	160.01565029347	210
2	2424	160.01565029347	211
2	2456	161.208518942497	212
2	2456	161.208518942497	213
2	2478	162.694091628648	214
2	2478	162.694091628648	215
2	2494	163.722948352134	216
2	2494	163.722948352134	217
2	2516	164.835674988986	218
2	2516	164.835674988986	219
2	2540	166.240865422348	220
2	2540	166.240865422348	221
2	2562	168.174644977358	222
2	2562	168.174644977358	223
2	2585	170.018657077726	224
2	2585	170.018657077726	225
2	2608	171.272959395445	226
2	2608	171.272959395445	227
2	2631	172.905924974519	228
2	2631	172.905924974519	229
2	2654	174.130485032049	230
2	2654	174.130485032049	231
2	2678	175.452936790794	232
2	2678	175.452936790794	233
2	2699	177.366608801127	234
2	2699	177.366608801127	235
2	2723	178.779357389316	236
2	2723	178.779357389316	237
2	2746	180.417802944063	238
2	2746	180.417802944063	239
2	2774	182.220618162655	240
2	2774	182.220618162655	241
2	2792	183.684924577838	242
2	2792	183.684924577838	243
2	2819	185.306661630311	244
2	2819	185.306661630311	245
2	2838	186.50237393158	246
2	2838	186.50237393158	247
2	2862	188.311366036817	248
2	2862	188.311366036817	249
2	2884	189.990877860858	250
2	2884	189.990877860858	251
2	2919	191.640955078369	252
2	2919	191.640955078369	253
2	2929	192.793113181921	254
2	2929	192.793113181921	255
2	2961	194.089452560855	256
2	2961	194.089452560855	257
2	2977	195.167066640115	258
2	2977	195.167066640115	259
2	3004	196.821179863771	260
2	3004	196.821179863771	261
2	3021	198.176950136791	262
2	3021	198.176950136791	263
2	3049	200.056431882417	264
2	3049	200.056431882417	265
2	3067	201.551740251663	266
2	3067	201.551740251663	267
2	3091	202.647323959228	268
2	3091	202.647323959228	269
2	3115	204.403131550193	270
2	3115	204.403131550193	271
2	3145	206.105063415003	272
2	3145	206.105063415003	273
2	3159	207.887742895703	274
2	3159	207.887742895703	275
2	3184	209.259620133914	276
2	3184	209.259620133914	277
2	3218	211.056714498973	278
2	3218	211.056714498973	279
2	3229	212.38691600455	280
2	3229	212.38691600455	281
2	3260	213.651601800599	282
2	3260	213.651601800599	283
2	3274	215.10677216086	284
2	3274	215.10677216086	285
2	3297	217.067367842262	286
2	3297	217.067367842262	287
2	3322	218.118433294376	288
2	3322	218.118433294376	289
2	3343	219.16742090994	290
2	3343	219.16742090994	291
2	3367	220.232752210606	292
2	3367	220.232752210606	293
2	3394	221.453428637844	294
2	3394	221.453428637844	295
2	3412	222.724291479795	296
2	3412	222.724291479795	297
2	3436	224.076215675081	298
2	3436	224.076215675081	299
2	3468	225.419200681197	300
2	3468	225.419200681197	301
2	3482	227.307380124335	302
2	3482	227.307380124335	303
2	3505	229.161734999192	304
2	3505	229.161734999192	305
2	3527	230.994367775993	306
2	3527	230.994367775993	307
2	3550	232.204885606614	308
2	3550	232.204885606614	309
2	3577	234.020393197855	310
2	3577	234.020393197855	311
2	3597	235.194870406612	312
2	3597	235.194870406612	313
2	3629	236.906634713094	314
2	3629	236.906634713094	315
2	3644	238.237328559488	316
2	3644	238.237328559488	317
2	3667	239.359600776894	318
2	3667	239.359600776894	319
3	9	0.227595799025	0
3	9	0.227595799025	1
3	9	0.227595799025	2
3	37	2.172051409777	3
3	37	2.172051409777	4
3	37	2.172051409777	5
3	54	3.985011548224	6
3	54	3.985011548224	7
3	54	3.985011548224	8
3	77	5.433889470453	9
3	77	5.433889470453	10
3	77	5.433889470453	11
3	108	6.992356329114	12
3	108	6.992356329114	13
3	108	6.992356329114	14
3	131	8.356554692875	15
3	131	8.356554692875	16
3	131	8.356554692875	17
3	148	10.169560801318	18
3	148	10.169560801318	19
3	148	10.169560801318	20
3	169	11.265956017648	21
3	169	11.265956017648	22
3	169	11.265956017648	23
3	194	12.371224194432	24
3	194	12.371224194432	25
3	194	12.371224194432	26
3	215	14.307036266364	27
3	215	14.307036266364	28
3	215	14.307036266364	29
3	247	16.323423401848	30
3	247	16.323423401848	31
3	247	16.323423401848	32
3	273	18.048302186194	33
3	273	18.048302186194	34
3	273	18.048302186194	35
3	284	19.57984997358	36
3	284	19.57984997358	37
3	284	19.57984997358	38
3	307	21.507162218475	39
3	307	21.507162218475	40
3	307	21.507162218475	41
3	330	22.606418168976	42
3	330	22.606418168976	43
3	330	22.606418168976	44
3	365	24.323566579119	45
3	365	24.323566579119	46
3	365	24.323566579119	47
3	385	25.911064336593	48
3	385	25.911064336593	49
3	385	25.911064336593	50
3	411	27.729884558159	51
3	411	27.729884558159	52
3	411	27.729884558159	53
3	423	29.02198378036	54
3	423	29.02198378036	55
3	423	29.02198378036	56
3	447	30.886694716239	57
3	447	30.886694716239	58
3	447	30.886694716239	59
3	470	32.859372475232	60
3	470	32.859372475232	61
3	470	32.859372475232	62
3	500	34.618218387973	63
3	500	34.618218387973	64
3	500	34.618218387973	65
3	514	36.228151699021	66
3	514	36.228151699021	67
3	514	36.228151699021	68
3	537	37.815083749279	69
3	537	37.815083749279	70
3	537	37.815083749279	71
3	561	39.249584871705	72
3	561	39.249584871705	73
3	561	39.249584871705	74
3	595	41.25542991386	75
3	595	41.25542991386	76
3	595	41.25542991386	77
3	613	42.355004246406	78
3	613	42.355004246406	79
3	613	42.355004246406	80
3	629	43.996373251527	81
3	629	43.996373251527	82
3	629	43.996373251527	83
3	657	45.116824099058	84
3	657	45.116824099058	85
3	657	45.116824099058	86
3	675	46.228136548534	87
3	675	46.228136548534	88
3	675	46.228136548534	89
3	698	48.065544492283	90
3	698	48.065544492283	91
3	698	48.065544492283	92
3	728	49.886575720163	93
3	728	49.886575720163	94
3	728	49.886575720163	95
3	745	50.909789988692	96
3	745	50.909789988692	97
3	745	50.909789988692	98
3	767	52.193332920111	99
3	767	52.193332920111	100
3	767	52.193332920111	101
3	790	54.081601196552	102
3	790	54.081601196552	103
3	790	54.081601196552	104
3	815	55.760777783237	105
3	815	55.760777783237	106
3	815	55.760777783237	107
3	837	57.711608446408	108
3	837	57.711608446408	109
3	837	57.711608446408	110
3	860	59.598940891456	111
3	860	59.598940891456	112
3	860	59.598940891456	113
3	883	60.789174447557	114
3	883	60.789174447557	115
3	883	60.789174447557	116
3	908	62.626294101623	117
3	908	62.626294101623	118
3	908	62.626294101623	119
3	929	64.084186136406	120
3	929	64.084186136406	121
3	929	64.084186136406	122
3	955	65.855754665364	123
3	955	65.855754665364	124
3	955	65.855754665364	125
3	974	67.638629306889	126
3	974	67.638629306889	127
3	974	67.638629306889	128
3	1009	69.075653439424	129
3	1009	69.075653439424	130
3	1009	69.075653439424	131
3	1020	70.592984204702	132
3	1020	70.592984204702	133
3	1020	70.592984204702	134
3	1045	71.847217273163	135
3	1045	71.847217273163	136
3	1045	71.847217273163	137
3	1067	73.23208965352	138
3	1067	73.23208965352	139
3	1067	73.23208965352	140
3	1089	75.073650687098	141
3	1089	75.073650687098	142
3	1089	75.073650687098	143
3	1113	76.039045039702	144
3	1113	76.039045039702	145
3	1113	76.039045039702	146
3	1136	77.681650682031	147
3	1136	77.681650682031	148
3	1136	77.681650682031	149
3	1158	79.65503627762	150
3	1158	79.65503627762	151
3	1158	79.65503627762	152
3	1182	80.673695096816	153
3	1182	80.673695096816	154
3	1182	80.673695096816	155
3	1205	82.220469148953	156
3	1205	82.220469148953	157
3	1205	82.220469148953	158
3	1227	83.676501555533	159
3	1227	83.676501555533	160
3	1227	83.676501555533	161
3	1251	84.752243401514	162
3	1251	84.752243401514	163
3	1251	84.752243401514	164
3	1273	85.769995905088	165
3	1273	85.769995905088	166
3	1273	85.769995905088	167
3	1296	87.055404992075	168
3	1296	87.055404992075	169
3	1296	87.055404992075	170
3	1328	88.230291814163	171
3	1328	88.230291814163	172
3	1328	88.230291814163	173
3	1343	90.080044239051	174
3	1343	90.080044239051	175
3	1343	90.080044239051	176
3	1367	91.213932809332	177
3	1367	91.213932809332	178
3	1367	91.213932809332	179
3	1388	92.798746560936	180
3	1388	92.798746560936	181
3	1388	92.798746560936	182
3	1417	93.941671397834	183
3	1417	93.941671397834	184
3	1417	93.941671397834	185
3	1434	95.9065863717	186
3	1434	95.9065863717	187
3	1434	95.9065863717	188
3	1466	97.226883004364	189
3	1466	97.226883004364	190
3	1466	97.226883004364	191
3	1480	98.940882009546	192
3	1480	98.940882009546	193
3	1480	98.940882009546	194
3	1515	100.293040476542	195
3	1515	100.293040476542	196
3	1515	100.293040476542	197
3	1527	102.149698731145	198
3	1527	102.149698731145	199
3	1527	102.149698731145	200
3	1551	103.967954657742	201
3	1551	103.967954657742	202
3	1551	103.967954657742	203
3	1573	105.051362303481	204
3	1573	105.051362303481	205
3	1573	105.051362303481	206
3	1595	106.147718879484	207
3	1595	106.147718879484	208
3	1595	106.147718879484	209
3	1619	107.571744441661	210
3	1619	107.571744441661	211
3	1619	107.571744441661	212
3	1647	109.415826410939	213
3	1647	109.415826410939	214
3	1647	109.415826410939	215
3	1664	110.819552828042	216
3	1664	110.819552828042	217
3	1664	110.819552828042	218
3	1689	112.104562620526	219
3	1689	112.104562620526	220
3	1689	112.104562620526	221
3	1712	113.949266413818	222
3	1712	113.949266413818	223
3	1712	113.949266413818	224
3	1734	115.552862195312	225
3	1734	115.552862195312	226
3	1734	115.552862195312	227
3	1757	116.853140190623	228
3	1757	116.853140190623	229
3	1757	116.853140190623	230
3	1788	118.3752111205	231
3	1788	118.3752111205	232
3	1788	118.3752111205	233
3	1802	119.375853926968	234
3	1802	119.375853926968	235
3	1802	119.375853926968	236
3	1826	120.627461344505	237
3	1826	120.627461344505	238
3	1826	120.627461344505	239
3	1852	122.459872573289	240
3	1852	122.459872573289	241
3	1852	122.459872573289	242
3	1871	124.303972548492	243
3	1871	124.303972548492	244
3	1871	124.303972548492	245
3	1895	125.499289866178	246
3	1895	125.499289866178	247
3	1895	125.499289866178	248
3	1925	126.640916094743	249
3	1925	126.640916094743	250
3	1925	126.640916094743	251
3	1942	128.167901762601	252
3	1942	128.167901762601	253
3	1942	128.167901762601	254
3	1964	129.208706973621	255
3	1964	129.208706973621	256
3	1964	129.208706973621	257
3	1986	130.390392640308	258
3	1986	130.390392640308	259
3	1986	130.390392640308	260
3	2009	131.458912712219	261
3	2009	131.458912712219	262
3	2009	131.458912712219	263
3	2034	133.075942485991	264
3	2034	133.075942485991	265
3	2034	133.075942485991	266
3	2056	135.062112932365	267
3	2056	135.062112932365	268
3	2056	135.062112932365	269
3	2079	136.990682916049	270
3	2079	136.990682916049	271
3	2079	136.990682916049	272
3	2105	138.385041528296	273
3	2105	138.385041528296	274
3	2105	138.385041528296	275
3	2124	139.931453502568	276
3	2124	139.931453502568	277
3	2124	139.931453502568	278
3	2147	141.805553072174	279
3	2147	141.805553072174	280
3	2147	141.805553072174	281
3	2170	143.173374536816	282
3	2170	143.173374536816	283
3	2170	143.173374536816	284
3	2205	144.897012365782	285
3	2205	144.897012365782	286
3	2205	144.897012365782	287
3	2217	145.95825749954	288
3	2217	145.95825749954	289
3	2217	145.95825749954	290
3	2241	147.242869909	291
3	2241	147.242869909	292
3	2241	147.242869909	293
3	2264	148.629594720175	294
3	2264	148.629594720175	295
3	2264	148.629594720175	296
3	2291	150.232249451972	297
3	2291	150.232249451972	298
3	2291	150.232249451972	299
3	2308	151.470878489874	300
3	2308	151.470878489874	301
3	2308	151.470878489874	302
3	2332	153.457152029091	303
3	2332	153.457152029091	304
3	2332	153.457152029091	305
3	2366	155.480109358875	306
3	2366	155.480109358875	307
3	2366	155.480109358875	308
3	2377	157.005367914297	309
3	2377	157.005367914297	310
3	2377	157.005367914297	311
3	2401	158.140551958198	312
3	2401	158.140551958198	313
3	2401	158.140551958198	314
3	2425	160.020994277405	315
3	2425	160.020994277405	316
3	2425	160.020994277405	317
3	2451	161.19754217571	318
3	2451	161.19754217571	319
3	2451	161.19754217571	320
3	2469	162.662649803516	321
3	2469	162.662649803516	322
3	2469	162.662649803516	323
3	2492	163.717333055285	324
3	2492	163.717333055285	325
3	2492	163.717333055285	326
3	2524	164.856260218733	327
3	2524	164.856260218733	328
3	2524	164.856260218733	329
3	2538	166.231023546178	330
3	2538	166.231023546178	331
3	2538	166.231023546178	332
3	2573	168.202970181482	333
3	2573	168.202970181482	334
3	2573	168.202970181482	335
3	2586	170.022111614022	336
3	2586	170.022111614022	337
3	2586	170.022111614022	338
3	2609	171.273897206725	339
3	2609	171.273897206725	340
3	2609	171.273897206725	341
3	2642	172.938862897585	342
3	2642	172.938862897585	343
3	2642	172.938862897585	344
3	2653	174.121703293805	345
3	2653	174.121703293805	346
3	2653	174.121703293805	347
3	2677	175.451986529534	348
3	2677	175.451986529534	349
3	2677	175.451986529534	350
3	2708	177.390756561443	351
3	2708	177.390756561443	352
3	2708	177.390756561443	353
3	2724	178.781248368901	354
3	2724	178.781248368901	355
3	2724	178.781248368901	356
3	2754	180.4299281617	357
3	2754	180.4299281617	358
3	2754	180.4299281617	359
3	2768	182.203865706941	360
3	2768	182.203865706941	361
3	2768	182.203865706941	362
3	2791	183.680322557195	363
3	2791	183.680322557195	364
3	2791	183.680322557195	365
3	2820	185.307294502703	366
3	2820	185.307294502703	367
3	2820	185.307294502703	368
3	2843	186.511518483649	369
3	2843	186.511518483649	370
3	2843	186.511518483649	371
3	2860	188.304343366033	372
3	2860	188.304343366033	373
3	2860	188.304343366033	374
3	2883	189.988609588269	375
3	2883	189.988609588269	376
3	2883	189.988609588269	377
3	2906	191.616768138264	378
3	2906	191.616768138264	379
3	2906	191.616768138264	380
3	2937	192.812862557041	381
3	2937	192.812862557041	382
3	2937	192.812862557041	383
3	2952	194.073990124041	384
3	2952	194.073990124041	385
3	2952	194.073990124041	386
3	2975	195.160234211369	387
3	2975	195.160234211369	388
3	2975	195.160234211369	389
3	2999	196.811462025358	390
3	2999	196.811462025358	391
3	2999	196.811462025358	392
3	3022	198.178089770039	393
3	3022	198.178089770039	394
3	3022	198.178089770039	395
3	3044	200.044032222329	396
3	3044	200.044032222329	397
3	3044	200.044032222329	398
3	3068	201.56014597489	399
3	3068	201.56014597489	400
3	3068	201.56014597489	401
3	3090	202.638875931171	402
3	3090	202.638875931171	403
3	3090	202.638875931171	404
3	3113	204.400603763989	405
3	3113	204.400603763989	406
3	3113	204.400603763989	407
3	3136	206.094413857366	408
3	3136	206.094413857366	409
3	3136	206.094413857366	410
3	3160	207.888707487366	411
3	3160	207.888707487366	412
3	3160	207.888707487366	413
3	3182	209.257520760913	414
3	3182	209.257520760913	415
3	3182	209.257520760913	416
3	3205	211.017210440412	417
3	3205	211.017210440412	418
3	3205	211.017210440412	419
3	3236	212.40051839778	420
3	3236	212.40051839778	421
3	3236	212.40051839778	422
3	3252	213.634717719396	423
3	3252	213.634717719396	424
3	3252	213.634717719396	425
3	3275	215.108878478853	426
3	3275	215.108878478853	427
3	3275	215.108878478853	428
3	3305	217.083499826677	429
3	3305	217.083499826677	430
3	3305	217.083499826677	431
3	3320	218.110457250094	432
3	3320	218.110457250094	433
3	3320	218.110457250094	434
3	3352	219.191551264438	435
3	3352	219.191551264438	436
3	3352	219.191551264438	437
3	3368	220.235870471499	438
3	3368	220.235870471499	439
3	3368	220.235870471499	440
3	3395	221.454437136027	441
3	3395	221.454437136027	442
3	3395	221.454437136027	443
3	3415	222.743906769618	444
3	3415	222.743906769618	445
3	3415	222.743906769618	446
3	3435	224.073446555746	447
3	3435	224.073446555746	448
3	3435	224.073446555746	449
3	3459	225.405948924131	450
3	3459	225.405948924131	451
3	3459	225.405948924131	452
3	3481	227.300825470053	453
3	3481	227.300825470053	454
3	3481	227.300825470053	455
3	3510	229.166717350991	456
3	3510	229.166717350991	457
3	3510	229.166717350991	458
3	3528	230.995756872885	459
3	3528	230.995756872885	460
3	3528	230.995756872885	461
3	3551	232.206007956932	462
3	3551	232.206007956932	463
3	3551	232.206007956932	464
3	3573	234.009989289907	465
3	3573	234.009989289907	466
3	3573	234.009989289907	467
3	3598	235.198001328798	468
3	3598	235.198001328798	469
3	3598	235.198001328798	470
3	3619	236.882247354993	471
3	3619	236.882247354993	472
3	3619	236.882247354993	473
3	3643	238.233371278118	474
3	3643	238.233371278118	475
3	3643	238.233371278118	476
3	3666	239.359056299016	477
3	3666	239.359056299016	478
3	3666	239.359056299016	479
4	12	0.228177698444	0
4	12	0.228177698444	1
4	12	0.228177698444	2
4	12	0.228177698444	3
4	31	2.160313014715	4
4	31	2.160313014715	5
4	31	2.160313014715	6
4	31	2.160313014715	7
4	55	3.992354146921	8
4	55	3.992354146921	9
4	55	3.992354146921	10
4	55	3.992354146921	11
4	78	5.434931099658	12
4	78	5.434931099658	13
4	78	5.434931099658	14
4	78	5.434931099658	15
4	101	6.979576984571	16
4	101	6.979576984571	17
4	101	6.979576984571	18
4	101	6.979576984571	19
4	123	8.337466792136	20
4	123	8.337466792136	21
4	123	8.337466792136	22
4	123	8.337466792136	23
4	147	10.167538987357	24
4	147	10.167538987357	25
4	147	10.167538987357	26
4	147	10.167538987357	27
4	175	11.291078431812	28
4	175	11.291078431812	29
4	175	11.291078431812	30
4	175	11.291078431812	31
4	192	12.366921020091	32
4	192	12.366921020091	33
4	192	12.366921020091	34
4	192	12.366921020091	35
4	226	14.327719270786	36
4	226	14.327719270786	37
4	226	14.327719270786	38
4	226	14.327719270786	39
4	238	16.296757695477	40
4	238	16.296757695477	41
4	238	16.296757695477	42
4	238	16.296757695477	43
4	261	18.025770385397	44
4	261	18.025770385397	45
4	261	18.025770385397	46
4	261	18.025770385397	47
4	288	19.590689279842	48
4	288	19.590689279842	49
4	288	19.590689279842	50
4	288	19.590689279842	51
4	309	21.509163072829	52
4	309	21.509163072829	53
4	309	21.509163072829	54
4	309	21.509163072829	55
4	331	22.608540991154	56
4	331	22.608540991154	57
4	331	22.608540991154	58
4	331	22.608540991154	59
4	353	24.281156816196	60
4	353	24.281156816196	61
4	353	24.281156816196	62
4	353	24.281156816196	63
4	376	25.893439621215	64
4	376	25.893439621215	65
4	376	25.893439621215	66
4	376	25.893439621215	67
4	400	27.699439156555	68
4	400	27.699439156555	69
4	400	27.699439156555	70
4	400	27.699439156555	71
4	422	29.017087987891	72
4	422	29.017087987891	73
4	422	29.017087987891	74
4	422	29.017087987891	75
4	446	30.878452896585	76
4	446	30.878452896585	77
4	446	30.878452896585	78
4	446	30.878452896585	79
4	468	32.858044785058	80
4	468	32.858044785058	81
4	468	32.858044785058	82
4	468	32.858044785058	83
4	492	34.601619074939	84
4	492	34.601619074939	85
4	492	34.601619074939	86
4	492	34.601619074939	87
4	515	36.236784609734	88
4	515	36.236784609734	89
4	515	36.236784609734	90
4	515	36.236784609734	91
4	538	37.824059949335	92
4	538	37.824059949335	93
4	538	37.824059949335	94
4	538	37.824059949335	95
4	567	39.261985170595	96
4	567	39.261985170595	97
4	567	39.261985170595	98
4	567	39.261985170595	99
4	583	41.223876818734	100
4	583	41.223876818734	101
4	583	41.223876818734	102
4	583	41.223876818734	103
4	606	42.331906933178	104
4	606	42.331906933178	105
4	606	42.331906933178	106
4	606	42.331906933178	107
4	634	44.012159215145	108
4	634	44.012159215145	109
4	634	44.012159215145	110
4	634	44.012159215145	111
4	652	45.098626906848	112
4	652	45.098626906848	113
4	652	45.098626906848	114
4	652	45.098626906848	115
4	676	46.235868560306	116
4	676	46.235868560306	117
4	676	46.235868560306	118
4	676	46.235868560306	119
4	699	48.066506876367	120
4	699	48.066506876367	121
4	699	48.066506876367	122
4	699	48.066506876367	123
4	721	49.868527980985	124
4	721	49.868527980985	125
4	721	49.868527980985	126
4	721	49.868527980985	127
4	746	50.914184518561	128
4	746	50.914184518561	129
4	746	50.914184518561	130
4	746	50.914184518561	131
4	768	52.196709035227	132
4	768	52.196709035227	133
4	768	52.196709035227	134
4	768	52.196709035227	135
4	797	54.102853092966	136
4	797	54.102853092966	137
4	797	54.102853092966	138
4	797	54.102853092966	139
4	813	55.751025659888	140
4	813	55.751025659888	141
4	813	55.751025659888	142
4	813	55.751025659888	143
4	838	57.713577364533	144
4	838	57.713577364533	145
4	838	57.713577364533	146
4	838	57.713577364533	147
4	861	59.599350358803	148
4	861	59.599350358803	149
4	861	59.599350358803	150
4	861	59.599350358803	151
4	886	60.797245121612	152
4	886	60.797245121612	153
4	886	60.797245121612	154
4	886	60.797245121612	155
4	912	62.642464705029	156
4	912	62.642464705029	157
4	912	62.642464705029	158
4	912	62.642464705029	159
4	928	64.083755678738	160
4	928	64.083755678738	161
4	928	64.083755678738	162
4	928	64.083755678738	163
4	952	65.849413405337	164
4	952	65.849413405337	165
4	952	65.849413405337	166
4	952	65.849413405337	167
4	980	67.654804787384	168
4	980	67.654804787384	169
4	980	67.654804787384	170
4	980	67.654804787384	171
4	998	69.026592791175	172
4	998	69.026592791175	173
4	998	69.026592791175	174
4	998	69.026592791175	175
4	1021	70.595232136848	176
4	1021	70.595232136848	177
4	1021	70.595232136848	178
4	1021	70.595232136848	179
4	1044	71.845886903477	180
4	1044	71.845886903477	181
4	1044	71.845886903477	182
4	1044	71.845886903477	183
4	1066	73.231495433304	184
4	1066	73.231495433304	185
4	1066	73.231495433304	186
4	1066	73.231495433304	187
4	1096	75.088905425874	188
4	1096	75.088905425874	189
4	1096	75.088905425874	190
4	1096	75.088905425874	191
4	1112	76.039037429484	192
4	1112	76.039037429484	193
4	1112	76.039037429484	194
4	1112	76.039037429484	195
4	1135	77.679493903863	196
4	1135	77.679493903863	197
4	1135	77.679493903863	198
4	1135	77.679493903863	199
4	1159	79.655276990358	200
4	1159	79.655276990358	201
4	1159	79.655276990358	202
4	1159	79.655276990358	203
4	1181	80.666103980451	204
4	1181	80.666103980451	205
4	1181	80.666103980451	206
4	1181	80.666103980451	207
4	1206	82.220748904443	208
4	1206	82.220748904443	209
4	1206	82.220748904443	210
4	1206	82.220748904443	211
4	1229	83.684925692898	212
4	1229	83.684925692898	213
4	1229	83.684925692898	214
4	1229	83.684925692898	215
4	1250	84.751080901335	216
4	1250	84.751080901335	217
4	1250	84.751080901335	218
4	1250	84.751080901335	219
4	1275	85.773301371324	220
4	1275	85.773301371324	221
4	1275	85.773301371324	222
4	1275	85.773301371324	223
4	1302	87.067293411122	224
4	1302	87.067293411122	225
4	1302	87.067293411122	226
4	1302	87.067293411122	227
4	1322	88.216853847649	228
4	1322	88.216853847649	229
4	1322	88.216853847649	230
4	1322	88.216853847649	231
4	1342	90.077852438834	232
4	1342	90.077852438834	233
4	1342	90.077852438834	234
4	1342	90.077852438834	235
4	1366	91.213558678546	236
4	1366	91.213558678546	237
4	1366	91.213558678546	238
4	1366	91.213558678546	239
4	1392	92.809798693911	240
4	1392	92.809798693911	241
4	1392	92.809798693911	242
4	1392	92.809798693911	243
4	1411	93.917692305015	244
4	1411	93.917692305015	245
4	1411	93.917692305015	246
4	1411	93.917692305015	247
4	1439	95.920995300779	248
4	1439	95.920995300779	249
4	1439	95.920995300779	250
4	1439	95.920995300779	251
4	1458	97.213621355956	252
4	1458	97.213621355956	253
4	1458	97.213621355956	254
4	1458	97.213621355956	255
4	1481	98.943535843146	256
4	1481	98.943535843146	257
4	1481	98.943535843146	258
4	1481	98.943535843146	259
4	1504	100.261436686806	260
4	1504	100.261436686806	261
4	1504	100.261436686806	262
4	1504	100.261436686806	263
4	1528	102.153887247992	264
4	1528	102.153887247992	265
4	1528	102.153887247992	266
4	1528	102.153887247992	267
4	1549	103.965075880738	268
4	1549	103.965075880738	269
4	1549	103.965075880738	270
4	1549	103.965075880738	271
4	1574	105.052800860977	272
4	1574	105.052800860977	273
4	1574	105.052800860977	274
4	1574	105.052800860977	275
4	1596	106.15228321201	276
4	1596	106.15228321201	277
4	1596	106.15228321201	278
4	1596	106.15228321201	279
4	1618	107.562107104457	280
4	1618	107.562107104457	281
4	1618	107.562107104457	282
4	1618	107.562107104457	283
4	1641	109.405607762572	284
4	1641	109.405607762572	285
4	1641	109.405607762572	286
4	1641	109.405607762572	287
4	1665	110.825225357456	288
4	1665	110.825225357456	289
4	1665	110.825225357456	290
4	1665	110.825225357456	291
4	1687	112.102726906526	292
4	1687	112.102726906526	293
4	1687	112.102726906526	294
4	1687	112.102726906526	295
4	1711	113.946684070513	296
4	1711	113.946684070513	297
4	1711	113.946684070513	298
4	1711	113.946684070513	299
4	1741	115.582440849918	300
4	1741	115.582440849918	301
4	1741	115.582440849918	302
4	1741	115.582440849918	303
4	1756	116.845599964473	304
4	1756	116.845599964473	305
4	1756	116.845599964473	306
4	1756	116.845599964473	307
4	1779	118.362875154426	308
4	1779	118.362875154426	309
4	1779	118.362875154426	310
4	1779	118.362875154426	311
4	1804	119.381214926013	312
4	1804	119.381214926013	313
4	1804	119.381214926013	314
4	1804	119.381214926013	315
4	1825	120.622899918879	316
4	1825	120.622899918879	317
4	1825	120.622899918879	318
4	1825	120.622899918879	319
4	1849	122.450358154975	320
4	1849	122.450358154975	321
4	1849	122.450358154975	322
4	1849	122.450358154975	323
4	1878	124.317489091682	324
4	1878	124.317489091682	325
4	1878	124.317489091682	326
4	1878	124.317489091682	327
4	1894	125.498302772769	328
4	1894	125.498302772769	329
4	1894	125.498302772769	330
4	1894	125.498302772769	331
4	1918	126.627122116591	332
4	1918	126.627122116591	333
4	1918	126.627122116591	334
4	1918	126.627122116591	335
4	1940	128.159612487384	336
4	1940	128.159612487384	337
4	1940	128.159612487384	338
4	1940	128.159612487384	339
4	1963	129.204797237599	340
4	1963	129.204797237599	341
4	1963	129.204797237599	342
4	1963	129.204797237599	343
4	1987	130.396110892228	344
4	1987	130.396110892228	345
4	1987	130.396110892228	346
4	1987	130.396110892228	347
4	2017	131.48055032002	348
4	2017	131.48055032002	349
4	2017	131.48055032002	350
4	2017	131.48055032002	351
4	2032	133.066035282873	352
4	2032	133.066035282873	353
4	2032	133.066035282873	354
4	2032	133.066035282873	355
4	2059	135.071025230069	356
4	2059	135.071025230069	357
4	2059	135.071025230069	358
4	2059	135.071025230069	359
4	2078	136.990192310082	360
4	2078	136.990192310082	361
4	2078	136.990192310082	362
4	2078	136.990192310082	363
4	2102	138.379880221246	364
4	2102	138.379880221246	365
4	2102	138.379880221246	366
4	2102	138.379880221246	367
4	2126	139.93801168295	368
4	2126	139.93801168295	369
4	2126	139.93801168295	370
4	2126	139.93801168295	371
4	2149	141.807638720884	372
4	2149	141.807638720884	373
4	2149	141.807638720884	374
4	2149	141.807638720884	375
4	2175	143.184672768269	376
4	2175	143.184672768269	377
4	2175	143.184672768269	378
4	2175	143.184672768269	379
4	2193	144.868755914753	380
4	2193	144.868755914753	381
4	2193	144.868755914753	382
4	2193	144.868755914753	383
4	2216	145.958138893055	384
4	2216	145.958138893055	385
4	2216	145.958138893055	386
4	2216	145.958138893055	387
4	2239	147.24104472071	388
4	2239	147.24104472071	389
4	2239	147.24104472071	390
4	2239	147.24104472071	391
4	2263	148.628365606802	392
4	2263	148.628365606802	393
4	2263	148.628365606802	394
4	2263	148.628365606802	395
4	2285	150.219640621784	396
4	2285	150.219640621784	397
4	2285	150.219640621784	398
4	2285	150.219640621784	399
4	2313	151.490199561545	400
4	2313	151.490199561545	401
4	2313	151.490199561545	402
4	2313	151.490199561545	403
4	2339	153.481628412151	404
4	2339	153.481628412151	405
4	2339	153.481628412151	406
4	2339	153.481628412151	407
4	2355	155.448427920045	408
4	2355	155.448427920045	409
4	2355	155.448427920045	410
4	2355	155.448427920045	411
4	2388	157.047296929843	412
4	2388	157.047296929843	413
4	2388	157.047296929843	414
4	2388	157.047296929843	415
4	2402	158.143309701701	416
4	2402	158.143309701701	417
4	2402	158.143309701701	418
4	2402	158.143309701701	419
4	2423	160.014128115375	420
4	2423	160.014128115375	421
4	2423	160.014128115375	422
4	2423	160.014128115375	423
4	2446	161.182213458047	424
4	2446	161.182213458047	425
4	2446	161.182213458047	426
4	2446	161.182213458047	427
4	2477	162.693133203377	428
4	2477	162.693133203377	429
4	2477	162.693133203377	430
4	2477	162.693133203377	431
4	2493	163.717499960174	432
4	2493	163.717499960174	433
4	2493	163.717499960174	434
4	2493	163.717499960174	435
4	2515	164.82959619097	436
4	2515	164.82959619097	437
4	2515	164.82959619097	438
4	2515	164.82959619097	439
4	2539	166.232612866901	440
4	2539	166.232612866901	441
4	2539	166.232612866901	442
4	2539	166.232612866901	443
4	2561	168.17460882485	444
4	2561	168.17460882485	445
4	2561	168.17460882485	446
4	2561	168.17460882485	447
4	2584	170.017690702426	448
4	2584	170.017690702426	449
4	2584	170.017690702426	450
4	2584	170.017690702426	451
4	2607	171.269892621087	452
4	2607	171.269892621087	453
4	2607	171.269892621087	454
4	2607	171.269892621087	455
4	2630	172.905641114601	456
4	2630	172.905641114601	457
4	2630	172.905641114601	458
4	2630	172.905641114601	459
4	2664	174.146662121777	460
4	2664	174.146662121777	461
4	2664	174.146662121777	462
4	2664	174.146662121777	463
4	2676	175.451915501268	464
4	2676	175.451915501268	465
4	2676	175.451915501268	466
4	2676	175.451915501268	467
4	2700	177.369444242233	468
4	2700	177.369444242233	469
4	2700	177.369444242233	470
4	2700	177.369444242233	471
4	2722	178.777837081846	472
4	2722	178.777837081846	473
4	2722	178.777837081846	474
4	2722	178.777837081846	475
4	2745	180.415714203497	476
4	2745	180.415714203497	477
4	2745	180.415714203497	478
4	2745	180.415714203497	479
4	2769	182.21374821068	480
4	2769	182.21374821068	481
4	2769	182.21374821068	482
4	2769	182.21374821068	483
4	2799	183.695953950499	484
4	2799	183.695953950499	485
4	2799	183.695953950499	486
4	2799	183.695953950499	487
4	2814	185.296052070541	488
4	2814	185.296052070541	489
4	2814	185.296052070541	490
4	2814	185.296052070541	491
4	2837	186.500229779776	492
4	2837	186.500229779776	493
4	2837	186.500229779776	494
4	2837	186.500229779776	495
4	2861	188.304963467882	496
4	2861	188.304963467882	497
4	2861	188.304963467882	498
4	2861	188.304963467882	499
4	2888	189.999357660242	500
4	2888	189.999357660242	501
4	2888	189.999357660242	502
4	2888	189.999357660242	503
4	2907	191.619431451116	504
4	2907	191.619431451116	505
4	2907	191.619431451116	506
4	2907	191.619431451116	507
4	2930	192.793720749494	508
4	2930	192.793720749494	509
4	2930	192.793720749494	510
4	2930	192.793720749494	511
4	2953	194.074782368723	512
4	2953	194.074782368723	513
4	2953	194.074782368723	514
4	2953	194.074782368723	515
4	2976	195.166734404965	516
4	2976	195.166734404965	517
4	2976	195.166734404965	518
4	2976	195.166734404965	519
4	2998	196.810698654647	520
4	2998	196.810698654647	521
4	2998	196.810698654647	522
4	2998	196.810698654647	523
4	3023	198.180761768789	524
4	3023	198.180761768789	525
4	3023	198.180761768789	526
4	3023	198.180761768789	527
4	3048	200.055395335575	528
4	3048	200.055395335575	529
4	3048	200.055395335575	530
4	3048	200.055395335575	531
4	3071	201.564948138782	532
4	3071	201.564948138782	533
4	3071	201.564948138782	534
4	3071	201.564948138782	535
4	3096	202.654999035011	536
4	3096	202.654999035011	537
4	3096	202.654999035011	538
4	3096	202.654999035011	539
4	3114	204.400679949699	540
4	3114	204.400679949699	541
4	3114	204.400679949699	542
4	3114	204.400679949699	543
4	3137	206.094839448063	544
4	3137	206.094839448063	545
4	3137	206.094839448063	546
4	3137	206.094839448063	547
4	3163	207.898653106508	548
4	3163	207.898653106508	549
4	3163	207.898653106508	550
4	3163	207.898653106508	551
4	3183	209.257716231633	552
4	3183	209.257716231633	553
4	3183	209.257716231633	554
4	3183	209.257716231633	555
4	3206	211.021401502449	556
4	3206	211.021401502449	557
4	3206	211.021401502449	558
4	3206	211.021401502449	559
4	3228	212.386613012246	560
4	3228	212.386613012246	561
4	3228	212.386613012246	562
4	3228	212.386613012246	563
4	3251	213.633104199124	564
4	3251	213.633104199124	565
4	3251	213.633104199124	566
4	3251	213.633104199124	567
4	3276	215.11613833347	568
4	3276	215.11613833347	569
4	3276	215.11613833347	570
4	3276	215.11613833347	571
4	3298	217.073460320342	572
4	3298	217.073460320342	573
4	3298	217.073460320342	574
4	3298	217.073460320342	575
4	3321	218.11216126896	576
4	3321	218.11216126896	577
4	3321	218.11216126896	578
4	3321	218.11216126896	579
4	3344	219.16907110986	580
4	3344	219.16907110986	581
4	3344	219.16907110986	582
4	3344	219.16907110986	583
4	3366	220.227654758587	584
4	3366	220.227654758587	585
4	3366	220.227654758587	586
4	3366	220.227654758587	587
4	3389	221.441137899432	588
4	3389	221.441137899432	589
4	3389	221.441137899432	590
4	3389	221.441137899432	591
4	3419	222.760673188277	592
4	3419	222.760673188277	593
4	3419	222.760673188277	594
4	3419	222.760673188277	595
4	3446	224.108534957707	596
4	3446	224.108534957707	597
4	3446	224.108534957707	598
4	3446	224.108534957707	599
4	3458	225.405259745515	600
4	3458	225.405259745515	601
4	3458	225.405259745515	602
4	3458	225.405259745515	603
4	3492	227.334139440365	604
4	3492	227.334139440365	605
4	3492	227.334139440365	606
4	3492	227.334139440365	607
4	3504	229.152780287204	608
4	3504	229.152780287204	609
4	3504	229.152780287204	610
4	3504	229.152780287204	611
4	3535	231.018506882594	612
4	3535	231.018506882594	613
4	3535	231.018506882594	614
4	3535	231.018506882594	615
4	3557	232.218102650844	616
4	3557	232.218102650844	617
4	3557	232.218102650844	618
4	3557	232.218102650844	619
4	3580	234.031939404653	620
4	3580	234.031939404653	621
4	3580	234.031939404653	622
4	3580	234.031939404653	623
4	3596	235.194123262072	624
4	3596	235.194123262072	625
4	3596	235.194123262072	626
4	3596	235.194123262072	627
4	3623	236.8936463354	628
4	3623	236.8936463354	629
4	3623	236.8936463354	630
4	3623	236.8936463354	631
4	3642	238.231841649345	632
4	3642	238.231841649345	633
4	3642	238.231841649345	634
4	3642	238.231841649345	635
4	3665	239.357783062065	636
4	3665	239.357783062065	637
4	3665	239.357783062065	638
4	3665	239.357783062065	639
5	20	0.240512463835	0
5	20	0.240512463835	1
5	20	0.240512463835	2
5	40	2.18063885215	3
5	40	2.18063885215	4
5	40	2.18063885215	5
5	64	4.002517379653	6
5	64	4.002517379653	7
5	64	4.002517379653	8
5	89	5.446413038289	9
5	89	5.446413038289	10
5	89	5.446413038289	11
5	109	6.996464435825	12
5	109	6.996464435825	13
5	109	6.996464435825	14
5	132	8.360688394288	15
5	132	8.360688394288	16
5	132	8.360688394288	17
5	158	10.187072758482	18
5	158	10.187072758482	19
5	158	10.187072758482	20
5	174	11.287656373715	21
5	174	11.287656373715	22
5	174	11.287656373715	23
5	204	12.3826616263	24
5	204	12.3826616263	25
5	204	12.3826616263	26
5	220	14.317075552404	27
5	220	14.317075552404	28
5	220	14.317075552404	29
5	246	16.320734088199	30
5	246	16.320734088199	31
5	246	16.320734088199	32
5	267	18.037217703041	33
5	267	18.037217703041	34
5	267	18.037217703041	35
5	289	19.597877952125	36
5	289	19.597877952125	37
5	289	19.597877952125	38
5	319	21.53265782005	39
5	319	21.53265782005	40
5	319	21.53265782005	41
5	336	22.617327438717	42
5	336	22.617327438717	43
5	336	22.617327438717	44
5	358	24.292241527911	45
5	358	24.292241527911	46
5	358	24.292241527911	47
5	384	25.907532084816	48
5	384	25.907532084816	49
5	384	25.907532084816	50
5	407	27.71565393099	51
5	407	27.71565393099	52
5	407	27.71565393099	53
5	434	29.057926869586	54
5	434	29.057926869586	55
5	434	29.057926869586	56
5	457	30.906061788851	57
5	457	30.906061788851	58
5	457	30.906061788851	59
5	480	32.872883052507	60
5	480	32.872883052507	61
5	480	32.872883052507	62
5	499	34.612569597271	63
5	499	34.612569597271	64
5	499	34.612569597271	65
5	520	36.240749695528	66
5	520	36.240749695528	67
5	520	36.240749695528	68
5	542	37.825122550836	69
5	542	37.825122550836	70
5	542	37.825122550836	71
5	568	39.266633164532	72
5	568	39.266633164532	73
5	568	39.266633164532	74
5	589	41.234382646575	75
5	589	41.234382646575	76
5	589	41.234382646575	77
5	612	42.347019718755	78
5	612	42.347019718755	79
5	612	42.347019718755	80
5	633	44.010997373432	81
5	633	44.010997373432	82
5	633	44.010997373432	83
5	662	45.132542106118	84
5	662	45.132542106118	85
5	662	45.132542106118	86
5	681	46.242297252421	87
5	681	46.242297252421	88
5	681	46.242297252421	89
5	708	48.081537559161	90
5	708	48.081537559161	91
5	708	48.081537559161	92
5	727	49.883426641766	93
5	727	49.883426641766	94
5	727	49.883426641766	95
5	756	50.930011227087	96
5	756	50.930011227087	97
5	756	50.930011227087	98
5	779	52.221167940407	99
5	779	52.221167940407	100
5	779	52.221167940407	101
5	802	54.119919916453	102
5	802	54.119919916453	103
5	802	54.119919916453	104
5	822	55.769519628491	105
5	822	55.769519628491	106
5	822	55.769519628491	107
5	848	57.745946748554	108
5	848	57.745946748554	109
5	848	57.745946748554	110
5	871	59.609400605191	111
5	871	59.609400605191	112
5	871	59.609400605191	113
5	890	60.806537506915	114
5	890	60.806537506915	115
5	890	60.806537506915	116
5	913	62.646539222964	117
5	913	62.646539222964	118
5	913	62.646539222964	119
5	940	64.099386460394	120
5	940	64.099386460394	121
5	940	64.099386460394	122
5	960	65.861926916102	123
5	960	65.861926916102	124
5	960	65.861926916102	125
5	979	67.651996024239	126
5	979	67.651996024239	127
5	979	67.651996024239	128
5	1005	69.037002910285	129
5	1005	69.037002910285	130
5	1005	69.037002910285	131
5	1026	70.603396155436	132
5	1026	70.603396155436	133
5	1026	70.603396155436	134
5	1055	71.858675835648	135
5	1055	71.858675835648	136
5	1055	71.858675835648	137
5	1078	73.259597311691	138
5	1078	73.259597311691	139
5	1078	73.259597311691	140
5	1097	75.089743222531	141
5	1097	75.089743222531	142
5	1097	75.089743222531	143
5	1122	76.050180444568	144
5	1122	76.050180444568	145
5	1122	76.050180444568	146
5	1147	77.701797798592	147
5	1147	77.701797798592	148
5	1147	77.701797798592	149
5	1170	79.694367520502	150
5	1170	79.694367520502	151
5	1170	79.694367520502	152
5	1190	80.700389410222	153
5	1190	80.700389410222	154
5	1190	80.700389410222	155
5	1216	82.231324860928	156
5	1216	82.231324860928	157
5	1216	82.231324860928	158
5	1233	83.687162927512	159
5	1233	83.687162927512	160
5	1233	83.687162927512	161
5	1262	84.764708783611	162
5	1262	84.764708783611	163
5	1262	84.764708783611	164
5	1279	85.782568885926	165
5	1279	85.782568885926	166
5	1279	85.782568885926	167
5	1301	87.066154249805	168
5	1301	87.066154249805	169
5	1301	87.066154249805	170
5	1327	88.228779821226	171
5	1327	88.228779821226	172
5	1327	88.228779821226	173
5	1354	90.091814047513	174
5	1354	90.091814047513	175
5	1354	90.091814047513	176
5	1377	91.233945933246	177
5	1377	91.233945933246	178
5	1377	91.233945933246	179
5	1393	92.810129916165	180
5	1393	92.810129916165	181
5	1393	92.810129916165	182
5	1416	93.934830939874	183
5	1416	93.934830939874	184
5	1416	93.934830939874	185
5	1442	95.930894861003	186
5	1442	95.930894861003	187
5	1442	95.930894861003	188
5	1465	97.22635632019	189
5	1465	97.22635632019	190
5	1465	97.22635632019	191
5	1492	98.988178518813	192
5	1492	98.988178518813	193
5	1492	98.988178518813	194
5	1511	100.272945871028	195
5	1511	100.272945871028	196
5	1511	100.272945871028	197
5	1538	102.171307064926	198
5	1538	102.171307064926	199
5	1538	102.171307064926	200
5	1561	103.986436041428	201
5	1561	103.986436041428	202
5	1561	103.986436041428	203
5	1584	105.120378813101	204
5	1584	105.120378813101	205
5	1584	105.120378813101	206
5	1607	106.174666389805	207
5	1607	106.174666389805	208
5	1607	106.174666389805	209
5	1628	107.581982058033	210
5	1628	107.581982058033	211
5	1628	107.581982058033	212
5	1653	109.431168942239	213
5	1653	109.431168942239	214
5	1653	109.431168942239	215
5	1673	110.841887400662	216
5	1673	110.841887400662	217
5	1673	110.841887400662	218
5	1699	112.11861859094	219
5	1699	112.11861859094	220
5	1699	112.11861859094	221
5	1722	113.960494394383	222
5	1722	113.960494394383	223
5	1722	113.960494394383	224
5	1740	115.575376283657	225
5	1740	115.575376283657	226
5	1740	115.575376283657	227
5	1766	116.864465874073	228
5	1766	116.864465874073	229
5	1766	116.864465874073	230
5	1787	118.375054701564	231
5	1787	118.375054701564	232
5	1787	118.375054701564	233
5	1814	119.407269335142	234
5	1814	119.407269335142	235
5	1814	119.407269335142	236
5	1835	120.642453466723	237
5	1835	120.642453466723	238
5	1835	120.642453466723	239
5	1857	122.463992254392	240
5	1857	122.463992254392	241
5	1857	122.463992254392	242
5	1879	124.323702392406	243
5	1879	124.323702392406	244
5	1879	124.323702392406	245
5	1904	125.50990954529	246
5	1904	125.50990954529	247
5	1904	125.50990954529	248
5	1929	126.672829415613	249
5	1929	126.672829415613	250
5	1929	126.672829415613	251
5	1947	128.170272836326	252
5	1947	128.170272836326	253
5	1947	128.170272836326	254
5	1973	129.220970868468	255
5	1973	129.220970868468	256
5	1973	129.220970868468	257
5	1996	130.407732328247	258
5	1996	130.407732328247	259
5	1996	130.407732328247	260
5	2014	131.476675860994	261
5	2014	131.476675860994	262
5	2014	131.476675860994	263
5	2044	133.087390271133	264
5	2044	133.087390271133	265
5	2044	133.087390271133	266
5	2063	135.079554922612	267
5	2063	135.079554922612	268
5	2063	135.079554922612	269
5	2087	137.013331037677	270
5	2087	137.013331037677	271
5	2087	137.013331037677	272
5	2110	138.390590533817	273
5	2110	138.390590533817	274
5	2110	138.390590533817	275
5	2132	139.944457707359	276
5	2132	139.944457707359	277
5	2132	139.944457707359	278
5	2159	141.825970466879	279
5	2159	141.825970466879	280
5	2159	141.825970466879	281
5	2178	143.191471731081	282
5	2178	143.191471731081	283
5	2178	143.191471731081	284
5	2201	144.886894498099	285
5	2201	144.886894498099	286
5	2201	144.886894498099	287
5	2228	145.973821296835	288
5	2228	145.973821296835	289
5	2228	145.973821296835	290
5	2251	147.253093871103	291
5	2251	147.253093871103	292
5	2251	147.253093871103	293
5	2274	148.667922921879	294
5	2274	148.667922921879	295
5	2274	148.667922921879	296
5	2292	150.232964046352	297
5	2292	150.232964046352	298
5	2292	150.232964046352	299
5	2312	151.486054555781	300
5	2312	151.486054555781	301
5	2312	151.486054555781	302
5	2338	153.47406559307	303
5	2338	153.47406559307	304
5	2338	153.47406559307	305
5	2362	155.459183699381	306
5	2362	155.459183699381	307
5	2362	155.459183699381	308
5	2384	157.025281796454	309
5	2384	157.025281796454	310
5	2384	157.025281796454	311
5	2412	158.19992621195	312
5	2412	158.19992621195	313
5	2412	158.19992621195	314
5	2435	160.032259421287	315
5	2435	160.032259421287	316
5	2435	160.032259421287	317
5	2455	161.208470432867	318
5	2455	161.208470432867	319
5	2455	161.208470432867	320
5	2473	162.676557950774	321
5	2473	162.676557950774	322
5	2473	162.676557950774	323
5	2504	163.776755990402	324
5	2504	163.776755990402	325
5	2504	163.776755990402	326
5	2523	164.848937036808	327
5	2523	164.848937036808	328
5	2523	164.848937036808	329
5	2548	166.242923634665	330
5	2548	166.242923634665	331
5	2548	166.242923634665	332
5	2569	168.192553240245	333
5	2569	168.192553240245	334
5	2569	168.192553240245	335
5	2596	170.040077582566	336
5	2596	170.040077582566	337
5	2596	170.040077582566	338
5	2619	171.300270057375	339
5	2619	171.300270057375	340
5	2619	171.300270057375	341
5	2638	172.923706631939	342
5	2638	172.923706631939	343
5	2638	172.923706631939	344
5	2658	174.136562361123	345
5	2658	174.136562361123	346
5	2658	174.136562361123	347
5	2688	175.463441259484	348
5	2688	175.463441259484	349
5	2688	175.463441259484	350
5	2707	177.389811882296	351
5	2707	177.389811882296	352
5	2707	177.389811882296	353
5	2734	178.798523306698	354
5	2734	178.798523306698	355
5	2734	178.798523306698	356
5	2751	180.426270834793	357
5	2751	180.426270834793	358
5	2751	180.426270834793	359
5	2773	182.218991590235	360
5	2773	182.218991590235	361
5	2773	182.218991590235	362
5	2796	183.692252278313	363
5	2796	183.692252278313	364
5	2796	183.692252278313	365
5	2821	185.314995191694	366
5	2821	185.314995191694	367
5	2821	185.314995191694	368
5	2846	186.519215512871	369
5	2846	186.519215512871	370
5	2846	186.519215512871	371
5	2870	188.320700873189	372
5	2870	188.320700873189	373
5	2870	188.320700873189	374
5	2891	190.002379644597	375
5	2891	190.002379644597	376
5	2891	190.002379644597	377
5	2911	191.628335078701	378
5	2911	191.628335078701	379
5	2911	191.628335078701	380
5	2938	192.820319059545	381
5	2938	192.820319059545	382
5	2938	192.820319059545	383
5	2964	194.110021563293	384
5	2964	194.110021563293	385
5	2964	194.110021563293	386
5	2981	195.176136818936	387
5	2981	195.176136818936	388
5	2981	195.176136818936	389
5	3008	196.829920135402	390
5	3008	196.829920135402	391
5	3008	196.829920135402	392
5	3033	198.214692407575	393
5	3033	198.214692407575	394
5	3033	198.214692407575	395
5	3050	200.057846896844	396
5	3050	200.057846896844	397
5	3050	200.057846896844	398
5	3075	201.571107350579	399
5	3075	201.571107350579	400
5	3075	201.571107350579	401
5	3095	202.65068075439	402
5	3095	202.65068075439	403
5	3095	202.65068075439	404
5	3123	204.412150006526	405
5	3123	204.412150006526	406
5	3123	204.412150006526	407
5	3146	206.106909089018	408
5	3146	206.106909089018	409
5	3146	206.106909089018	410
5	3167	207.906164593809	411
5	3167	207.906164593809	412
5	3167	207.906164593809	413
5	3194	209.277022398381	414
5	3194	209.277022398381	415
5	3194	209.277022398381	416
5	3214	211.038729712124	417
5	3214	211.038729712124	418
5	3214	211.038729712124	419
5	3240	212.411525647313	420
5	3240	212.411525647313	421
5	3240	212.411525647313	422
5	3261	213.657787192283	423
5	3261	213.657787192283	424
5	3261	213.657787192283	425
5	3286	215.142031266534	426
5	3286	215.142031266534	427
5	3286	215.142031266534	428
5	3306	217.092947695241	429
5	3306	217.092947695241	430
5	3306	217.092947695241	431
5	3326	218.121673399604	432
5	3326	218.121673399604	433
5	3326	218.121673399604	434
5	3351	219.184159991694	435
5	3351	219.184159991694	436
5	3351	219.184159991694	437
5	3375	220.245250760199	438
5	3375	220.245250760199	439
5	3375	220.245250760199	440
5	3396	221.454819121198	441
5	3396	221.454819121198	442
5	3396	221.454819121198	443
5	3424	222.77084692977	444
5	3424	222.77084692977	445
5	3424	222.77084692977	446
5	3442	224.089730701444	447
5	3442	224.089730701444	448
5	3442	224.089730701444	449
5	3464	225.415636084855	450
5	3464	225.415636084855	451
5	3464	225.415636084855	452
5	3488	227.320248590644	453
5	3488	227.320248590644	454
5	3488	227.320248590644	455
5	3511	229.169292084943	456
5	3511	229.169292084943	457
5	3511	229.169292084943	458
5	3534	231.013774661443	459
5	3534	231.013774661443	460
5	3534	231.013774661443	461
5	3562	232.231987331848	462
5	3562	232.231987331848	463
5	3562	232.231987331848	464
5	3581	234.040379467148	465
5	3581	234.040379467148	466
5	3581	234.040379467148	467
5	3605	235.205806945491	468
5	3605	235.205806945491	469
5	3605	235.205806945491	470
5	3624	236.901797456279	471
5	3624	236.901797456279	472
5	3624	236.901797456279	473
5	3654	238.247423105324	474
5	3654	238.247423105324	475
5	3654	238.247423105324	476
5	3677	239.385555198853	477
5	3677	239.385555198853	478
5	3677	239.385555198853	479
6	23	0.250512463835	0
6	46	2.19063885215	1
6	69	4.012517379653	2
6	92	5.456413038289	3
6	115	7.006464435825	4
6	138	8.370688394288	5
6	161	10.197072758482	6
6	180	11.297656373715	7
6	207	12.3926616263	8
6	225	14.327075552404	9
6	250	16.330734088199	10
6	272	18.047217703041	11
6	297	19.607877952125	12
6	322	21.54265782005	13
6	345	22.627327438717	14
6	362	24.302241527911	15
6	388	25.917532084816	16
6	410	27.72565393099	17
6	437	29.067926869586	18
6	460	30.916061788851	19
6	483	32.882883052507	20
6	503	34.622569597271	21
6	529	36.250749695528	22
6	549	37.835122550836	23
6	575	39.276633164532	24
6	594	41.244382646575	25
6	618	42.357019718755	26
6	638	44.020997373432	27
6	667	45.142542106118	28
6	690	46.252297252421	29
6	713	48.091537559161	30
6	733	49.893426641766	31
6	759	50.940011227087	32
6	782	52.231167940407	33
6	805	54.129919916453	34
6	828	55.779519628491	35
6	851	57.755946748554	36
6	874	59.619400605191	37
6	897	60.816537506915	38
6	920	62.656539222964	39
6	943	64.109386460394	40
6	966	65.871926916102	41
6	985	67.661996024239	42
6	1008	69.047002910285	43
6	1035	70.613396155436	44
6	1058	71.868675835648	45
6	1081	73.269597311691	46
6	1104	75.099743222531	47
6	1127	76.060180444568	48
6	1150	77.711797798592	49
6	1173	79.704367520502	50
6	1194	80.710389410222	51
6	1219	82.241324860928	52
6	1242	83.697162927512	53
6	1265	84.774708783611	54
6	1288	85.792568885926	55
6	1307	87.076154249805	56
6	1331	88.238779821226	57
6	1357	90.101814047513	58
6	1380	91.243945933246	59
6	1401	92.820129916165	60
6	1421	93.944830939874	61
6	1449	95.940894861003	62
6	1469	97.23635632019	63
6	1495	98.998178518813	64
6	1514	100.282945871028	65
6	1541	102.181307064926	66
6	1564	103.996436041428	67
6	1587	105.130378813101	68
6	1610	106.184666389805	69
6	1633	107.591982058033	70
6	1656	109.441168942239	71
6	1677	110.851887400662	72
6	1702	112.12861859094	73
6	1725	113.970494394383	74
6	1744	115.585376283657	75
6	1771	116.874465874073	76
6	1791	118.385054701564	77
6	1817	119.417269335142	78
6	1840	120.652453466723	79
6	1863	122.473992254392	80
6	1886	124.333702392406	81
6	1909	125.51990954529	82
6	1932	126.682829415613	83
6	1955	128.180272836326	84
6	1978	129.230970868468	85
6	2001	130.417732328247	86
6	2020	131.486675860994	87
6	2047	133.097390271133	88
6	2070	135.089554922612	89
6	2091	137.023331037677	90
6	2116	138.400590533817	91
6	2139	139.954457707359	92
6	2162	141.835970466879	93
6	2185	143.201471731081	94
6	2204	144.896894498099	95
6	2231	145.983821296835	96
6	2254	147.263093871103	97
6	2277	148.677922921879	98
6	2300	150.242964046352	99
6	2316	151.496054555781	100
6	2342	153.48406559307	101
6	2365	155.469183699381	102
6	2387	157.035281796454	103
6	2415	158.20992621195	104
6	2438	160.042259421287	105
6	2459	161.218470432867	106
6	2476	162.686557950774	107
6	2507	163.786755990402	108
6	2527	164.858937036808	109
6	2553	166.252923634665	110
6	2572	168.202553240245	111
6	2599	170.050077582566	112
6	2622	171.310270057375	113
6	2641	172.933706631939	114
6	2663	174.146562361123	115
6	2691	175.473441259484	116
6	2711	177.399811882296	117
6	2737	178.808523306698	118
6	2757	180.436270834793	119
6	2781	182.228991590235	120
6	2802	183.702252278313	121
6	2829	185.324995191694	122
6	2852	186.529215512871	123
6	2875	188.330700873189	124
6	2898	190.012379644597	125
6	2918	191.638335078701	126
6	2944	192.830319059545	127
6	2967	194.120021563293	128
6	2990	195.186136818936	129
6	3013	196.839920135402	130
6	3036	198.224692407575	131
6	3059	200.067846896844	132
6	3082	201.581107350579	133
6	3101	202.66068075439	134
6	3128	204.422150006526	135
6	3151	206.116909089018	136
6	3174	207.916164593809	137
6	3197	209.287022398381	138
6	3217	211.048729712124	139
6	3243	212.421525647313	140
6	3266	213.667787192283	141
6	3289	215.152031266534	142
6	3312	217.102947695241	143
6	3335	218.131673399604	144
6	3355	219.194159991694	145
6	3381	220.255250760199	146
6	3404	221.464819121198	147
6	3427	222.78084692977	148
6	3445	224.099730701444	149
6	3471	225.425636084855	150
6	3491	227.330248590644	151
6	3519	229.179292084943	152
6	3538	231.023774661443	153
6	3565	232.241987331848	154
6	3588	234.050379467148	155
6	3611	235.215806945491	156
6	3632	236.911797456279	157
6	3657	238.257423105324	158
6	3680	239.395555198853	159

