version 2
run General-3-20230921-21:40:26-6208
attr configname General
attr datetime 20230921-21:40:26
attr experiment General
attr inifile omnetpp.ini
attr iterationvars ""
attr iterationvarsf ""
attr measurement ""
attr network Network2
attr processid 6208
attr repetition 3
attr replication #3
attr resultdir results
attr runnumber 3
attr seedset 3
param Network2.node[*].transmissionTime "uniform(1s, 2s)"
param Network2.node[*].delayTime "uniform(0.01s, 0.2s)"
param Network2.node[*].processingTime exponential(0.01s)
param Network2.node[*].lossProbability 0.3

vector 0 Network2.node[0] txVector ETV
vector 1 Network2.node[1] txVector ETV
vector 2 Network2.node[6] txVector ETV
vector 3 Network2.node[3] txVector ETV
vector 4 Network2.node[4] txVector ETV
vector 5 Network2.node[2] txVector ETV
vector 6 Network2.node[5] rxVector ETV
0	1	0.114651601831	0
0	15	1.185376482154	1
0	17	2.433264783886	2
0	40	3.526816279464	3
0	63	4.810341365705	4
0	86	6.135647542844	5
0	88	7.427440316253	6
0	111	8.885126714431	7
0	134	10.2474671731	8
0	144	11.490142594627	9
0	167	13.214081731229	10
0	190	14.879706338816	11
0	210	16.793681600899	12
0	233	18.33727593075	13
0	235	19.376194028486	14
0	242	21.376169492327	15
0	244	23.106877618539	16
0	267	24.758000383922	17
0	269	26.756283508451	18
0	271	28.747579229367	19
0	294	29.905248984764	20
0	296	31.26435651381	21
0	319	32.99104626833	22
0	337	34.810588351986	23
0	360	36.173664631624	24
0	383	38.13895798365	25
0	406	39.615889747929	26
0	408	40.691456151497	27
0	431	41.875228467467	28
0	433	42.90615766386	29
0	443	44.138256053277	30
0	466	45.214044258068	31
0	485	47.028826671722	32
0	495	48.355090677109	33
0	497	49.425460436451	34
0	520	51.264363844017	35
0	522	52.940360433026	36
0	545	54.386274543428	37
0	547	55.573225538782	38
0	570	57.247555913939	39
0	593	58.497744853911	40
0	616	60.288935602712	41
0	618	61.740947224269	42
0	641	63.275922803743	43
0	664	64.883266537985	44
0	687	66.879052846762	45
0	689	68.597080399352	46
0	712	70.006653629546	47
0	735	71.471190607012	48
0	745	73.238940130756	49
0	768	75.237287209439	50
0	791	76.529543988942	51
0	793	78.460165501409	52
0	816	80.22358543456	53
0	839	81.961618262412	54
0	841	83.723404500237	55
0	860	84.972094432287	56
0	883	86.667600722587	57
0	906	88.381974435481	58
0	908	89.489825531677	59
0	926	91.274521376076	60
0	949	93.058771841996	61
0	972	95.019636060414	62
0	995	96.256083628698	63
0	997	97.661439258442	64
0	1020	99.49512477715	65
0	1035	100.513102229521	66
0	1037	102.222695822664	67
0	1039	103.892718157335	68
0	1041	105.330752993305	69
0	1043	106.827820522315	70
0	1066	108.767278407072	71
0	1068	110.06286438352	72
0	1070	111.337519385922	73
0	1093	112.731060833507	74
0	1095	114.414739398821	75
0	1118	115.518585594673	76
0	1141	117.181612342432	77
0	1164	119.104973046178	78
0	1171	120.106295577552	79
0	1173	121.564023516675	80
0	1196	123.509484325138	81
0	1198	125.014127347686	82
0	1200	126.058604850967	83
0	1223	127.309697386876	84
0	1246	128.627495832809	85
0	1248	130.322288920472	86
0	1250	131.779272003865	87
0	1273	133.497132151688	88
0	1296	134.936584328602	89
0	1319	136.792428806026	90
0	1342	138.744812832514	91
0	1365	140.5399122623	92
0	1367	142.504463212632	93
0	1369	144.076328930512	94
0	1371	145.085599835098	95
0	1394	146.261256582404	96
0	1417	147.951524789745	97
0	1419	149.440760349456	98
0	1442	150.982960538307	99
0	1444	152.667746501343	100
0	1446	154.236567576948	101
0	1469	155.321519320199	102
0	1492	156.865550535332	103
0	1494	158.169382235568	104
0	1496	159.814534682848	105
0	1519	161.064536525703	106
0	1521	162.623577498666	107
0	1544	164.198179138892	108
0	1567	165.930803351405	109
0	1590	167.547150605659	110
0	1613	168.96692993196	111
0	1636	170.385346507256	112
0	1659	172.268132541164	113
0	1682	173.729773886104	114
0	1705	175.492056052268	115
0	1728	176.827264777918	116
0	1730	178.309062429539	117
0	1753	180.231725131462	118
0	1755	181.431317593737	119
0	1757	182.981745940701	120
0	1759	184.93607205136	121
0	1782	186.099152959252	122
0	1805	187.612038574249	123
0	1828	188.823894143405	124
0	1830	190.151196850997	125
0	1832	191.323650676126	126
0	1855	192.50869805489	127
0	1875	194.225524092161	128
0	1890	195.646279212155	129
0	1892	196.933396131101	130
0	1915	198.771211706635	131
0	1917	199.804561848354	132
0	1924	201.733046142452	133
0	1943	203.3812565434	134
0	1966	204.867185803896	135
0	1968	206.351800355662	136
0	1991	208.04514310702	137
0	2001	209.621571649166	138
0	2021	211.332753511213	139
0	2044	212.771856967893	140
0	2067	214.260369505335	141
0	2090	215.76147599525	142
0	2092	217.368802897466	143
0	2115	218.376876821343	144
0	2117	219.854165956911	145
0	2119	220.912806224378	146
0	2121	222.48517574819	147
0	2144	223.559463848194	148
0	2167	225.266466241397	149
0	2190	227.109069238484	150
0	2213	228.810223006245	151
0	2236	230.529258557197	152
0	2238	232.250292148974	153
0	2261	234.171581406446	154
0	2284	235.563482850624	155
0	2294	237.18643531047	156
0	2317	238.621328372575	157
1	3	0.14297423212	0
1	3	0.14297423212	1
1	3	0.14297423212	2
1	3	0.14297423212	3
1	19	2.455133438848	4
1	19	2.455133438848	5
1	19	2.455133438848	6
1	19	2.455133438848	7
1	42	3.54862984828	8
1	42	3.54862984828	9
1	42	3.54862984828	10
1	42	3.54862984828	11
1	65	4.836892478073	12
1	65	4.836892478073	13
1	65	4.836892478073	14
1	65	4.836892478073	15
1	90	7.457139654274	16
1	90	7.457139654274	17
1	90	7.457139654274	18
1	90	7.457139654274	19
1	113	8.902385373291	20
1	113	8.902385373291	21
1	113	8.902385373291	22
1	113	8.902385373291	23
1	136	10.293081753277	24
1	136	10.293081753277	25
1	136	10.293081753277	26
1	136	10.293081753277	27
1	146	11.506587852678	28
1	146	11.506587852678	29
1	146	11.506587852678	30
1	146	11.506587852678	31
1	169	13.228080111298	32
1	169	13.228080111298	33
1	169	13.228080111298	34
1	169	13.228080111298	35
1	192	14.89974842495	36
1	192	14.89974842495	37
1	192	14.89974842495	38
1	192	14.89974842495	39
1	212	16.8046224098	40
1	212	16.8046224098	41
1	212	16.8046224098	42
1	212	16.8046224098	43
1	237	19.38931306243	44
1	237	19.38931306243	45
1	237	19.38931306243	46
1	237	19.38931306243	47
1	246	23.123397254382	48
1	246	23.123397254382	49
1	246	23.123397254382	50
1	246	23.123397254382	51
1	273	28.763940585678	52
1	273	28.763940585678	53
1	273	28.763940585678	54
1	273	28.763940585678	55
1	298	31.275858548428	56
1	298	31.275858548428	57
1	298	31.275858548428	58
1	298	31.275858548428	59
1	321	33.004648771488	60
1	321	33.004648771488	61
1	321	33.004648771488	62
1	321	33.004648771488	63
1	339	34.836685597878	64
1	339	34.836685597878	65
1	339	34.836685597878	66
1	339	34.836685597878	67
1	362	36.197568752195	68
1	362	36.197568752195	69
1	362	36.197568752195	70
1	362	36.197568752195	71
1	385	38.156220593087	72
1	385	38.156220593087	73
1	385	38.156220593087	74
1	385	38.156220593087	75
1	410	40.707189495102	76
1	410	40.707189495102	77
1	410	40.707189495102	78
1	410	40.707189495102	79
1	435	42.916286039271	80
1	435	42.916286039271	81
1	435	42.916286039271	82
1	435	42.916286039271	83
1	445	44.151462957865	84
1	445	44.151462957865	85
1	445	44.151462957865	86
1	445	44.151462957865	87
1	468	45.227113933554	88
1	468	45.227113933554	89
1	468	45.227113933554	90
1	468	45.227113933554	91
1	487	47.047595691585	92
1	487	47.047595691585	93
1	487	47.047595691585	94
1	487	47.047595691585	95
1	499	49.447181178876	96
1	499	49.447181178876	97
1	499	49.447181178876	98
1	499	49.447181178876	99
1	524	52.961494756133	100
1	524	52.961494756133	101
1	524	52.961494756133	102
1	524	52.961494756133	103
1	549	55.607124196962	104
1	549	55.607124196962	105
1	549	55.607124196962	106
1	549	55.607124196962	107
1	572	57.282790801674	108
1	572	57.282790801674	109
1	572	57.282790801674	110
1	572	57.282790801674	111
1	595	58.508189662519	112
1	595	58.508189662519	113
1	595	58.508189662519	114
1	595	58.508189662519	115
1	620	61.76269018972	116
1	620	61.76269018972	117
1	620	61.76269018972	118
1	620	61.76269018972	119
1	643	63.317163724347	120
1	643	63.317163724347	121
1	643	63.317163724347	122
1	643	63.317163724347	123
1	666	64.893769542481	124
1	666	64.893769542481	125
1	666	64.893769542481	126
1	666	64.893769542481	127
1	691	68.616263291175	128
1	691	68.616263291175	129
1	691	68.616263291175	130
1	691	68.616263291175	131
1	714	70.016720796807	132
1	714	70.016720796807	133
1	714	70.016720796807	134
1	714	70.016720796807	135
1	737	71.481818020736	136
1	737	71.481818020736	137
1	737	71.481818020736	138
1	737	71.481818020736	139
1	747	73.259036735972	140
1	747	73.259036735972	141
1	747	73.259036735972	142
1	747	73.259036735972	143
1	770	75.252097046985	144
1	770	75.252097046985	145
1	770	75.252097046985	146
1	770	75.252097046985	147
1	795	78.47653445166	148
1	795	78.47653445166	149
1	795	78.47653445166	150
1	795	78.47653445166	151
1	818	80.28485808383	152
1	818	80.28485808383	153
1	818	80.28485808383	154
1	818	80.28485808383	155
1	843	83.73932195108	156
1	843	83.73932195108	157
1	843	83.73932195108	158
1	843	83.73932195108	159
1	862	84.991388461113	160
1	862	84.991388461113	161
1	862	84.991388461113	162
1	862	84.991388461113	163
1	885	86.679471379796	164
1	885	86.679471379796	165
1	885	86.679471379796	166
1	885	86.679471379796	167
1	910	89.506733136415	168
1	910	89.506733136415	169
1	910	89.506733136415	170
1	910	89.506733136415	171
1	928	91.300823707728	172
1	928	91.300823707728	173
1	928	91.300823707728	174
1	928	91.300823707728	175
1	951	93.085311595557	176
1	951	93.085311595557	177
1	951	93.085311595557	178
1	951	93.085311595557	179
1	974	95.031433009628	180
1	974	95.031433009628	181
1	974	95.031433009628	182
1	974	95.031433009628	183
1	999	97.67715630724	184
1	999	97.67715630724	185
1	999	97.67715630724	186
1	999	97.67715630724	187
1	1022	99.516464246975	188
1	1022	99.516464246975	189
1	1022	99.516464246975	190
1	1022	99.516464246975	191
1	1045	106.876514470917	192
1	1045	106.876514470917	193
1	1045	106.876514470917	194
1	1045	106.876514470917	195
1	1072	111.372032905144	196
1	1072	111.372032905144	197
1	1072	111.372032905144	198
1	1072	111.372032905144	199
1	1097	114.449790480261	200
1	1097	114.449790480261	201
1	1097	114.449790480261	202
1	1097	114.449790480261	203
1	1120	115.534783042511	204
1	1120	115.534783042511	205
1	1120	115.534783042511	206
1	1120	115.534783042511	207
1	1143	117.195046746737	208
1	1143	117.195046746737	209
1	1143	117.195046746737	210
1	1143	117.195046746737	211
1	1166	119.125568978931	212
1	1166	119.125568978931	213
1	1166	119.125568978931	214
1	1166	119.125568978931	215
1	1175	121.581415441713	216
1	1175	121.581415441713	217
1	1175	121.581415441713	218
1	1175	121.581415441713	219
1	1202	126.071320650001	220
1	1202	126.071320650001	221
1	1202	126.071320650001	222
1	1202	126.071320650001	223
1	1225	127.33772084056	224
1	1225	127.33772084056	225
1	1225	127.33772084056	226
1	1225	127.33772084056	227
1	1252	131.800795806553	228
1	1252	131.800795806553	229
1	1252	131.800795806553	230
1	1252	131.800795806553	231
1	1275	133.514285740612	232
1	1275	133.514285740612	233
1	1275	133.514285740612	234
1	1275	133.514285740612	235
1	1298	134.952617113281	236
1	1298	134.952617113281	237
1	1298	134.952617113281	238
1	1298	134.952617113281	239
1	1321	136.80365385744	240
1	1321	136.80365385744	241
1	1321	136.80365385744	242
1	1321	136.80365385744	243
1	1344	138.759057894441	244
1	1344	138.759057894441	245
1	1344	138.759057894441	246
1	1344	138.759057894441	247
1	1373	145.100364336158	248
1	1373	145.100364336158	249
1	1373	145.100364336158	250
1	1373	145.100364336158	251
1	1396	146.27494749504	252
1	1396	146.27494749504	253
1	1396	146.27494749504	254
1	1396	146.27494749504	255
1	1421	149.455275384975	256
1	1421	149.455275384975	257
1	1421	149.455275384975	258
1	1421	149.455275384975	259
1	1448	154.247381188344	260
1	1448	154.247381188344	261
1	1448	154.247381188344	262
1	1448	154.247381188344	263
1	1471	155.367218280692	264
1	1471	155.367218280692	265
1	1471	155.367218280692	266
1	1471	155.367218280692	267
1	1498	159.835152189644	268
1	1498	159.835152189644	269
1	1498	159.835152189644	270
1	1498	159.835152189644	271
1	1523	162.657405140834	272
1	1523	162.657405140834	273
1	1523	162.657405140834	274
1	1523	162.657405140834	275
1	1546	164.218958198767	276
1	1546	164.218958198767	277
1	1546	164.218958198767	278
1	1546	164.218958198767	279
1	1569	165.954319895371	280
1	1569	165.954319895371	281
1	1569	165.954319895371	282
1	1569	165.954319895371	283
1	1592	167.56068801429	284
1	1592	167.56068801429	285
1	1592	167.56068801429	286
1	1592	167.56068801429	287
1	1615	168.981361885901	288
1	1615	168.981361885901	289
1	1615	168.981361885901	290
1	1615	168.981361885901	291
1	1638	170.404110230875	292
1	1638	170.404110230875	293
1	1638	170.404110230875	294
1	1638	170.404110230875	295
1	1661	172.290013546898	296
1	1661	172.290013546898	297
1	1661	172.290013546898	298
1	1661	172.290013546898	299
1	1684	173.746976283417	300
1	1684	173.746976283417	301
1	1684	173.746976283417	302
1	1684	173.746976283417	303
1	1707	175.503043215352	304
1	1707	175.503043215352	305
1	1707	175.503043215352	306
1	1707	175.503043215352	307
1	1732	178.323243330269	308
1	1732	178.323243330269	309
1	1732	178.323243330269	310
1	1732	178.323243330269	311
1	1761	184.949849586075	312
1	1761	184.949849586075	313
1	1761	184.949849586075	314
1	1761	184.949849586075	315
1	1784	186.111001946569	316
1	1784	186.111001946569	317
1	1784	186.111001946569	318
1	1784	186.111001946569	319
1	1807	187.622583281548	320
1	1807	187.622583281548	321
1	1807	187.622583281548	322
1	1807	187.622583281548	323
1	1834	191.344666211172	324
1	1834	191.344666211172	325
1	1834	191.344666211172	326
1	1834	191.344666211172	327
1	1857	192.524815686066	328
1	1857	192.524815686066	329
1	1857	192.524815686066	330
1	1857	192.524815686066	331
1	1877	194.235767124028	332
1	1877	194.235767124028	333
1	1877	194.235767124028	334
1	1877	194.235767124028	335
1	1894	196.962289260783	336
1	1894	196.962289260783	337
1	1894	196.962289260783	338
1	1894	196.962289260783	339
1	1919	199.818419792691	340
1	1919	199.818419792691	341
1	1919	199.818419792691	342
1	1919	199.818419792691	343
1	1926	201.766971209019	344
1	1926	201.766971209019	345
1	1926	201.766971209019	346
1	1926	201.766971209019	347
1	1945	203.399699971492	348
1	1945	203.399699971492	349
1	1945	203.399699971492	350
1	1945	203.399699971492	351
1	1970	206.363036013272	352
1	1970	206.363036013272	353
1	1970	206.363036013272	354
1	1970	206.363036013272	355
1	1993	208.058055599648	356
1	1993	208.058055599648	357
1	1993	208.058055599648	358
1	1993	208.058055599648	359
1	2003	209.632651654467	360
1	2003	209.632651654467	361
1	2003	209.632651654467	362
1	2003	209.632651654467	363
1	2023	211.349703060142	364
1	2023	211.349703060142	365
1	2023	211.349703060142	366
1	2023	211.349703060142	367
1	2046	212.788445162295	368
1	2046	212.788445162295	369
1	2046	212.788445162295	370
1	2046	212.788445162295	371
1	2069	214.271980734769	372
1	2069	214.271980734769	373
1	2069	214.271980734769	374
1	2069	214.271980734769	375
1	2094	217.422306751944	376
1	2094	217.422306751944	377
1	2094	217.422306751944	378
1	2094	217.422306751944	379
1	2123	222.508957689955	380
1	2123	222.508957689955	381
1	2123	222.508957689955	382
1	2123	222.508957689955	383
1	2146	223.57007214049	384
1	2146	223.57007214049	385
1	2146	223.57007214049	386
1	2146	223.57007214049	387
1	2169	225.276709572724	388
1	2169	225.276709572724	389
1	2169	225.276709572724	390
1	2169	225.276709572724	391
1	2192	227.132507601126	392
1	2192	227.132507601126	393
1	2192	227.132507601126	394
1	2192	227.132507601126	395
1	2215	228.823795338044	396
1	2215	228.823795338044	397
1	2215	228.823795338044	398
1	2215	228.823795338044	399
1	2240	232.262297792724	400
1	2240	232.262297792724	401
1	2240	232.262297792724	402
1	2240	232.262297792724	403
1	2263	234.186653777896	404
1	2263	234.186653777896	405
1	2263	234.186653777896	406
1	2263	234.186653777896	407
1	2286	235.58168039382	408
1	2286	235.58168039382	409
1	2286	235.58168039382	410
1	2286	235.58168039382	411
1	2296	237.226978245818	412
1	2296	237.226978245818	413
1	2296	237.226978245818	414
1	2296	237.226978245818	415
2	8	0.158720088868	0
2	8	0.158720088868	1
2	24	2.467561507639	2
2	24	2.467561507639	3
2	48	3.566496715846	4
2	48	3.566496715846	5
2	72	4.857488631529	6
2	72	4.857488631529	7
2	95	7.470396644173	8
2	95	7.470396644173	9
2	118	8.917063036531	10
2	118	8.917063036531	11
2	141	10.309668163576	12
2	141	10.309668163576	13
2	151	11.51734114749	14
2	151	11.51734114749	15
2	184	13.26421556266	16
2	184	13.26421556266	17
2	218	16.817753192618	18
2	218	16.817753192618	19
2	251	23.187308545748	20
2	251	23.187308545748	21
2	287	28.793900392723	22
2	287	28.793900392723	23
2	308	31.30426933378	24
2	308	31.30426933378	25
2	327	33.027152588589	26
2	327	33.027152588589	27
2	354	34.878598559471	28
2	354	34.878598559471	29
2	367	36.212846627782	30
2	367	36.212846627782	31
2	396	38.21698480335	32
2	396	38.21698480335	33
2	415	40.72066175683	34
2	415	40.72066175683	35
2	440	42.932476611355	36
2	440	42.932476611355	37
2	450	44.166421638625	38
2	450	44.166421638625	39
2	482	45.266131636995	40
2	482	45.266131636995	41
2	492	47.069839357838	42
2	492	47.069839357838	43
2	508	49.475788865265	44
2	508	49.475788865265	45
2	538	52.992111422223	46
2	538	52.992111422223	47
2	564	55.663513884413	48
2	564	55.663513884413	49
2	578	57.300553310485	50
2	578	57.300553310485	51
2	600	58.527275483025	52
2	600	58.527275483025	53
2	625	61.773767536661	54
2	625	61.773767536661	55
2	649	63.335210262144	56
2	649	63.335210262144	57
2	680	64.928082736928	58
2	680	64.928082736928	59
2	702	68.650853310565	60
2	702	68.650853310565	61
2	724	70.048682607014	62
2	724	70.048682607014	63
2	742	71.502616330102	64
2	742	71.502616330102	65
2	753	73.272490299584	66
2	753	73.272490299584	67
2	776	75.274233158297	68
2	776	75.274233158297	69
2	801	78.497506098609	70
2	801	78.497506098609	71
2	824	80.296288046171	72
2	824	80.296288046171	73
2	848	83.74960897171	74
2	848	83.74960897171	75
2	868	85.009516783293	76
2	868	85.009516783293	77
2	903	86.735234915485	78
2	903	86.735234915485	79
2	915	89.521704130346	80
2	915	89.521704130346	81
2	942	91.348050350098	82
2	942	91.348050350098	83
2	956	93.102591461296	84
2	956	93.102591461296	85
2	983	95.060008636944	86
2	983	95.060008636944	87
2	1005	97.695112687813	88
2	1005	97.695112687813	89
2	1028	99.533975509002	90
2	1028	99.533975509002	91
2	1052	106.902324637256	92
2	1052	106.902324637256	93
2	1078	111.387253838649	94
2	1078	111.387253838649	95
2	1112	114.50868071344	96
2	1112	114.50868071344	97
2	1131	115.555044074327	98
2	1131	115.555044074327	99
2	1155	117.247604365713	100
2	1155	117.247604365713	101
2	1180	121.592393861309	102
2	1180	121.592393861309	103
2	1220	126.117335008568	104
2	1220	126.117335008568	105
2	1230	127.351148565398	106
2	1230	127.351148565398	107
2	1258	131.822214753715	108
2	1258	131.822214753715	109
2	1280	133.527010132712	110
2	1280	133.527010132712	111
2	1303	134.96838897733	112
2	1303	134.96838897733	113
2	1339	136.866550827192	114
2	1339	136.866550827192	115
2	1358	138.792148278285	116
2	1358	138.792148278285	117
2	1378	145.11435144402	118
2	1378	145.11435144402	119
2	1401	146.285453743245	120
2	1401	146.285453743245	121
2	1433	149.505191148329	122
2	1433	149.505191148329	123
2	1459	154.272782606616	124
2	1459	154.272782606616	125
2	1477	155.387472893307	126
2	1477	155.387472893307	127
2	1516	159.872295296673	128
2	1516	159.872295296673	129
2	1534	162.686987511705	130
2	1534	162.686987511705	131
2	1551	164.229546654369	132
2	1551	164.229546654369	133
2	1579	165.981165598277	134
2	1579	165.981165598277	135
2	1597	167.572738319097	136
2	1597	167.572738319097	137
2	1620	168.992056416214	138
2	1620	168.992056416214	139
2	1645	170.420289805707	140
2	1645	170.420289805707	141
2	1672	172.351741570792	142
2	1672	172.351741570792	143
2	1689	173.757496973983	144
2	1689	173.757496973983	145
2	1712	175.526492848629	146
2	1712	175.526492848629	147
2	1737	178.34110286655	148
2	1737	178.34110286655	149
2	1779	185.017644897317	150
2	1779	185.017644897317	151
2	1790	186.129483977171	152
2	1790	186.129483977171	153
2	1812	187.652922424185	154
2	1812	187.652922424185	155
2	1843	191.373315247461	156
2	1843	191.373315247461	157
2	1882	194.248969926348	158
2	1882	194.248969926348	159
2	1905	196.99691941131	160
2	1905	196.99691941131	161
2	1933	201.784427299696	162
2	1933	201.784427299696	163
2	1963	203.469136205328	164
2	1963	203.469136205328	165
2	1988	206.433889165537	166
2	1988	206.433889165537	167
2	1998	208.069387414359	168
2	1998	208.069387414359	169
2	2029	211.367049233753	170
2	2029	211.367049233753	171
2	2053	212.804975615839	172
2	2053	212.804975615839	173
2	2074	214.285666910273	174
2	2074	214.285666910273	175
2	2099	217.433730968851	176
2	2099	217.433730968851	177
2	2128	222.519924722219	178
2	2128	222.519924722219	179
2	2152	223.59241129304	180
2	2152	223.59241129304	181
2	2174	225.290023144971	182
2	2174	225.290023144971	183
2	2203	227.158194538221	184
2	2203	227.158194538221	185
2	2220	228.834778097516	186
2	2220	228.834778097516	187
2	2250	232.309625175888	188
2	2250	232.309625175888	189
2	2268	234.197097674481	190
2	2268	234.197097674481	191
2	2291	235.59262641349	192
2	2291	235.59262641349	193
2	2301	237.240425929539	194
2	2301	237.240425929539	195
3	9	0.161397929952	0
3	9	0.161397929952	1
3	9	0.161397929952	2
3	25	2.47116965401	3
3	25	2.47116965401	4
3	25	2.47116965401	5
3	59	3.61305150351	6
3	59	3.61305150351	7
3	59	3.61305150351	8
3	70	4.847859977356	9
3	70	4.847859977356	10
3	70	4.847859977356	11
3	107	7.510786060751	12
3	107	7.510786060751	13
3	107	7.510786060751	14
3	119	8.924070799817	15
3	119	8.924070799817	16
3	119	8.924070799817	17
3	160	11.53029125367	18
3	160	11.53029125367	19
3	160	11.53029125367	20
3	174	13.241143823214	21
3	174	13.241143823214	22
3	174	13.241143823214	23
3	197	14.917631416249	24
3	197	14.917631416249	25
3	197	14.917631416249	26
3	219	16.818166425868	27
3	219	16.818166425868	28
3	219	16.818166425868	29
3	263	23.255737531294	30
3	263	23.255737531294	31
3	263	23.255737531294	32
3	278	28.774609178526	33
3	278	28.774609178526	34
3	278	28.774609178526	35
3	303	31.289568629238	36
3	303	31.289568629238	37
3	303	31.289568629238	38
3	326	33.018021755063	39
3	326	33.018021755063	40
3	326	33.018021755063	41
3	344	34.849960846138	42
3	344	34.849960846138	43
3	344	34.849960846138	44
3	368	36.220303811617	45
3	368	36.220303811617	46
3	368	36.220303811617	47
3	395	38.215444058673	48
3	395	38.215444058673	49
3	395	38.215444058673	50
3	423	40.755858679391	51
3	423	40.755858679391	52
3	423	40.755858679391	53
3	452	44.173329690065	54
3	452	44.173329690065	55
3	452	44.173329690065	56
3	473	45.237118722856	57
3	473	45.237118722856	58
3	473	45.237118722856	59
3	504	49.464808186718	60
3	504	49.464808186718	61
3	504	49.464808186718	62
3	529	52.975654949342	63
3	529	52.975654949342	64
3	529	52.975654949342	65
3	554	55.623607687446	66
3	554	55.623607687446	67
3	554	55.623607687446	68
3	577	57.293374512267	69
3	577	57.293374512267	70
3	577	57.293374512267	71
3	601	58.528100940917	72
3	601	58.528100940917	73
3	601	58.528100940917	74
3	626	61.778345213572	75
3	626	61.778345213572	76
3	626	61.778345213572	77
3	650	63.340813415818	78
3	650	63.340813415818	79
3	650	63.340813415818	80
3	671	64.912324040374	81
3	671	64.912324040374	82
3	671	64.912324040374	83
3	696	68.631601146297	84
3	696	68.631601146297	85
3	696	68.631601146297	86
3	727	70.087633771702	87
3	727	70.087633771702	88
3	727	70.087633771702	89
3	752	73.272488875872	90
3	752	73.272488875872	91
3	752	73.272488875872	92
3	782	75.284062557453	93
3	782	75.284062557453	94
3	782	75.284062557453	95
3	800	78.493717534323	96
3	800	78.493717534323	97
3	800	78.493717534323	98
3	825	80.302385698495	99
3	825	80.302385698495	100
3	825	80.302385698495	101
3	879	85.03346913058	102
3	879	85.03346913058	103
3	879	85.03346913058	104
3	890	86.697635926191	105
3	890	86.697635926191	106
3	890	86.697635926191	107
3	918	89.534051746718	108
3	918	89.534051746718	109
3	918	89.534051746718	110
3	933	91.316539847638	111
3	933	91.316539847638	112
3	933	91.316539847638	113
3	959	93.119335820034	114
3	959	93.119335820034	115
3	959	93.119335820034	116
3	979	95.046977384537	117
3	979	95.046977384537	118
3	979	95.046977384537	119
3	1012	97.713194498493	120
3	1012	97.713194498493	121
3	1012	97.713194498493	122
3	1050	106.897292688359	123
3	1050	106.897292688359	124
3	1050	106.897292688359	125
3	1085	111.405027860648	126
3	1085	111.405027860648	127
3	1085	111.405027860648	128
3	1102	114.461153532612	129
3	1102	114.461153532612	130
3	1102	114.461153532612	131
3	1126	115.547352358368	132
3	1126	115.547352358368	133
3	1126	115.547352358368	134
3	1153	117.238599334637	135
3	1153	117.238599334637	136
3	1153	117.238599334637	137
3	1182	121.598422610574	138
3	1182	121.598422610574	139
3	1182	121.598422610574	140
3	1207	126.084374901131	141
3	1207	126.084374901131	142
3	1207	126.084374901131	143
3	1233	127.361210013668	144
3	1233	127.361210013668	145
3	1233	127.361210013668	146
3	1263	131.823790555752	147
3	1263	131.823790555752	148
3	1263	131.823790555752	149
3	1284	133.538133057391	150
3	1284	133.538133057391	151
3	1284	133.538133057391	152
3	1304	134.972897160842	153
3	1304	134.972897160842	154
3	1304	134.972897160842	155
3	1326	136.813699143556	156
3	1326	136.813699143556	157
3	1326	136.813699143556	158
3	1349	138.77203879698	159
3	1349	138.77203879698	160
3	1349	138.77203879698	161
3	1386	145.127191103215	162
3	1386	145.127191103215	163
3	1386	145.127191103215	164
3	1409	146.305909492758	165
3	1409	146.305909492758	166
3	1409	146.305909492758	167
3	1432	149.501923656939	168
3	1432	149.501923656939	169
3	1432	149.501923656939	170
3	1453	154.260555714061	171
3	1453	154.260555714061	172
3	1453	154.260555714061	173
3	1476	155.379489970586	174
3	1476	155.379489970586	175
3	1476	155.379489970586	176
3	1504	159.849438317195	177
3	1504	159.849438317195	178
3	1504	159.849438317195	179
3	1529	162.677137467805	180
3	1529	162.677137467805	181
3	1529	162.677137467805	182
3	1552	164.230168887161	183
3	1552	164.230168887161	184
3	1552	164.230168887161	185
3	1574	165.968445005837	186
3	1574	165.968445005837	187
3	1574	165.968445005837	188
3	1598	167.575114166862	189
3	1598	167.575114166862	190
3	1598	167.575114166862	191
3	1628	169.053459114525	192
3	1628	169.053459114525	193
3	1628	169.053459114525	194
3	1644	170.419913292106	195
3	1644	170.419913292106	196
3	1644	170.419913292106	197
3	1678	172.362041142545	198
3	1678	172.362041142545	199
3	1678	172.362041142545	200
3	1690	173.761918895271	201
3	1690	173.761918895271	202
3	1690	173.761918895271	203
3	1713	175.527511733572	204
3	1713	175.527511733572	205
3	1713	175.527511733572	206
3	1745	178.357402920886	207
3	1745	178.357402920886	208
3	1745	178.357402920886	209
3	1766	184.965286752638	210
3	1766	184.965286752638	211
3	1766	184.965286752638	212
3	1789	186.123981393701	213
3	1789	186.123981393701	214
3	1789	186.123981393701	215
3	1824	187.71893804711	216
3	1824	187.71893804711	217
3	1824	187.71893804711	218
3	1839	191.358476813844	219
3	1839	191.358476813844	220
3	1839	191.358476813844	221
3	1863	192.542132094759	222
3	1863	192.542132094759	223
3	1863	192.542132094759	224
3	1904	196.996171210518	225
3	1904	196.996171210518	226
3	1904	196.996171210518	227
3	1931	201.778460029024	228
3	1931	201.778460029024	229
3	1931	201.778460029024	230
3	1956	203.434490775684	231
3	1956	203.434490775684	232
3	1956	203.434490775684	233
3	1975	206.3843955077	234
3	1975	206.3843955077	235
3	1975	206.3843955077	236
3	2009	209.65330635136	237
3	2009	209.65330635136	238
3	2009	209.65330635136	239
3	2028	211.363681354065	240
3	2028	211.363681354065	241
3	2028	211.363681354065	242
3	2051	212.799715392971	243
3	2051	212.799715392971	244
3	2051	212.799715392971	245
3	2082	214.30938841383	246
3	2082	214.30938841383	247
3	2082	214.30938841383	248
3	2107	217.470009062259	249
3	2107	217.470009062259	250
3	2107	217.470009062259	251
3	2137	222.53519091656	252
3	2137	222.53519091656	253
3	2137	222.53519091656	254
3	2151	223.592098367101	255
3	2151	223.592098367101	256
3	2151	223.592098367101	257
3	2175	225.294752960368	258
3	2175	225.294752960368	259
3	2175	225.294752960368	260
3	2198	227.149171878857	261
3	2198	227.149171878857	262
3	2198	227.149171878857	263
3	2228	228.851841443675	264
3	2228	228.851841443675	265
3	2228	228.851841443675	266
3	2245	232.298670443319	267
3	2245	232.298670443319	268
3	2245	232.298670443319	269
3	2276	234.226798066678	270
3	2276	234.226798066678	271
3	2276	234.226798066678	272
3	2302	237.246943495455	273
3	2302	237.246943495455	274
3	2302	237.246943495455	275
4	31	2.481412395314	0
4	31	2.481412395314	1
4	31	2.481412395314	2
4	53	3.575502655382	3
4	53	3.575502655382	4
4	53	3.575502655382	5
4	80	4.862347327744	6
4	80	4.862347327744	7
4	80	4.862347327744	8
4	103	7.499873354211	9
4	103	7.499873354211	10
4	103	7.499873354211	11
4	130	8.942575686135	12
4	130	8.942575686135	13
4	130	8.942575686135	14
4	159	11.529961510822	15
4	159	11.529961510822	16
4	159	11.529961510822	17
4	183	13.26410176226	18
4	183	13.26410176226	19
4	183	13.26410176226	20
4	206	14.972892610233	21
4	206	14.972892610233	22
4	206	14.972892610233	23
4	229	16.833511005323	24
4	229	16.833511005323	25
4	229	16.833511005323	26
4	259	23.213621708787	27
4	259	23.213621708787	28
4	259	23.213621708787	29
4	288	28.798121632711	30
4	288	28.798121632711	31
4	288	28.798121632711	32
4	313	31.311733797435	33
4	313	31.311733797435	34
4	313	31.311733797435	35
4	333	33.039983973086	36
4	333	33.039983973086	37
4	333	33.039983973086	38
4	353	34.870263141578	39
4	353	34.870263141578	40
4	353	34.870263141578	41
4	379	36.256079765499	42
4	379	36.256079765499	43
4	379	36.256079765499	44
4	400	38.226154185513	45
4	400	38.226154185513	46
4	400	38.226154185513	47
4	427	40.774811949654	48
4	427	40.774811949654	49
4	427	40.774811949654	50
4	462	44.184746167006	51
4	462	44.184746167006	52
4	462	44.184746167006	53
4	516	49.494261939831	54
4	516	49.494261939831	55
4	516	49.494261939831	56
4	541	53.006172399529	57
4	541	53.006172399529	58
4	541	53.006172399529	59
4	563	55.658186102485	60
4	563	55.658186102485	61
4	563	55.658186102485	62
4	584	57.312351016767	63
4	584	57.312351016767	64
4	584	57.312351016767	65
4	608	58.548617526785	66
4	608	58.548617526785	67
4	608	58.548617526785	68
4	632	61.790698721643	69
4	632	61.790698721643	70
4	632	61.790698721643	71
4	657	63.34534247615	72
4	657	63.34534247615	73
4	657	63.34534247615	74
4	681	64.930843623952	75
4	681	64.930843623952	76
4	681	64.930843623952	77
4	701	68.642887154203	78
4	701	68.642887154203	79
4	701	68.642887154203	80
4	731	70.10419544111	81
4	731	70.10419544111	82
4	731	70.10419544111	83
4	760	73.28740276987	84
4	760	73.28740276987	85
4	760	73.28740276987	86
4	781	75.283418832998	87
4	781	75.283418832998	88
4	781	75.283418832998	89
4	805	78.506670716693	90
4	805	78.506670716693	91
4	805	78.506670716693	92
4	832	80.307566652144	93
4	832	80.307566652144	94
4	832	80.307566652144	95
4	856	83.792558496186	96
4	856	83.792558496186	97
4	856	83.792558496186	98
4	873	85.016842850045	99
4	873	85.016842850045	100
4	873	85.016842850045	101
4	895	86.713589845652	102
4	895	86.713589845652	103
4	895	86.713589845652	104
4	922	89.56367243009	105
4	922	89.56367243009	106
4	922	89.56367243009	107
4	943	91.35317155692	108
4	943	91.35317155692	109
4	943	91.35317155692	110
4	968	93.13351491761	111
4	968	93.13351491761	112
4	968	93.13351491761	113
4	991	95.075608659411	114
4	991	95.075608659411	115
4	991	95.075608659411	116
4	1016	97.72376958364	117
4	1016	97.72376958364	118
4	1016	97.72376958364	119
4	1062	106.915374085431	120
4	1062	106.915374085431	121
4	1062	106.915374085431	122
4	1089	111.425780117282	123
4	1089	111.425780117282	124
4	1089	111.425780117282	125
4	1107	114.499980510808	126
4	1107	114.499980510808	127
4	1107	114.499980510808	128
4	1135	115.559199070222	129
4	1135	115.559199070222	130
4	1135	115.559199070222	131
4	1154	117.24226984692	132
4	1154	117.24226984692	133
4	1154	117.24226984692	134
4	1192	121.62073134478	135
4	1192	121.62073134478	136
4	1192	121.62073134478	137
4	1211	126.097234989769	138
4	1211	126.097234989769	139
4	1211	126.097234989769	140
4	1242	127.382236682527	141
4	1242	127.382236682527	142
4	1242	127.382236682527	143
4	1264	131.830778580413	144
4	1264	131.830778580413	145
4	1264	131.830778580413	146
4	1289	133.546793673213	147
4	1289	133.546793673213	148
4	1289	133.546793673213	149
4	1310	134.983873000762	150
4	1310	134.983873000762	151
4	1310	134.983873000762	152
4	1330	136.826182990317	153
4	1330	136.826182990317	154
4	1330	136.826182990317	155
4	1359	138.796317704707	156
4	1359	138.796317704707	157
4	1359	138.796317704707	158
4	1387	145.130075758914	159
4	1387	145.130075758914	160
4	1387	145.130075758914	161
4	1413	146.332658489469	162
4	1413	146.332658489469	163
4	1413	146.332658489469	164
4	1431	149.501086364406	165
4	1431	149.501086364406	166
4	1431	149.501086364406	167
4	1458	154.272086274248	168
4	1458	154.272086274248	169
4	1458	154.272086274248	170
4	1488	155.399871542001	171
4	1488	155.399871542001	172
4	1488	155.399871542001	173
4	1509	159.859095134226	174
4	1509	159.859095134226	175
4	1509	159.859095134226	176
4	1538	162.688856507929	177
4	1538	162.688856507929	178
4	1538	162.688856507929	179
4	1563	164.25387309181	180
4	1563	164.25387309181	181
4	1563	164.25387309181	182
4	1580	165.982531212406	183
4	1580	165.982531212406	184
4	1580	165.982531212406	185
4	1609	167.591753375655	186
4	1609	167.591753375655	187
4	1609	167.591753375655	188
4	1632	169.066876711753	189
4	1632	169.066876711753	190
4	1632	169.066876711753	191
4	1655	170.435194240493	192
4	1655	170.435194240493	193
4	1655	170.435194240493	194
4	1671	172.350414742905	195
4	1671	172.350414742905	196
4	1671	172.350414742905	197
4	1701	173.790237007918	198
4	1701	173.790237007918	199
4	1701	173.790237007918	200
4	1719	175.537609963019	201
4	1719	175.537609963019	202
4	1719	175.537609963019	203
4	1746	178.358483687242	204
4	1746	178.358483687242	205
4	1746	178.358483687242	206
4	1771	184.986817546013	207
4	1771	184.986817546013	208
4	1771	184.986817546013	209
4	1797	186.142755350746	210
4	1797	186.142755350746	211
4	1797	186.142755350746	212
4	1820	187.695546292345	213
4	1820	187.695546292345	214
4	1820	187.695546292345	215
4	1846	191.398262818751	216
4	1846	191.398262818751	217
4	1846	191.398262818751	218
4	1871	192.558182847912	219
4	1871	192.558182847912	220
4	1871	192.558182847912	221
4	1906	197.00508634946	222
4	1906	197.00508634946	223
4	1906	197.00508634946	224
4	1955	203.425135498177	225
4	1955	203.425135498177	226
4	1955	203.425135498177	227
4	1980	206.41788448526	228
4	1980	206.41788448526	229
4	1980	206.41788448526	230
4	2017	209.675773419968	231
4	2017	209.675773419968	232
4	2017	209.675773419968	233
4	2033	211.374466654934	234
4	2033	211.374466654934	235
4	2033	211.374466654934	236
4	2061	212.813745669423	237
4	2061	212.813745669423	238
4	2061	212.813745669423	239
4	2083	214.316395599281	240
4	2083	214.316395599281	241
4	2083	214.316395599281	242
4	2108	217.470579537717	243
4	2108	217.470579537717	244
4	2108	217.470579537717	245
4	2136	222.533128490989	246
4	2136	222.533128490989	247
4	2136	222.533128490989	248
4	2163	223.630963619837	249
4	2163	223.630963619837	250
4	2163	223.630963619837	251
4	2186	225.328962758748	252
4	2186	225.328962758748	253
4	2186	225.328962758748	254
4	2209	227.170167348736	255
4	2209	227.170167348736	256
4	2209	227.170167348736	257
4	2232	228.905599852406	258
4	2232	228.905599852406	259
4	2232	228.905599852406	260
4	2257	232.321169495192	261
4	2257	232.321169495192	262
4	2257	232.321169495192	263
4	2280	234.271643609033	264
4	2280	234.271643609033	265
4	2280	234.271643609033	266
4	2313	237.27405463263	267
4	2313	237.27405463263	268
4	2313	237.27405463263	269
5	32	2.488839495757	0
5	32	2.488839495757	1
5	32	2.488839495757	2
5	32	2.488839495757	3
5	47	3.561844582617	4
5	47	3.561844582617	5
5	47	3.561844582617	6
5	47	3.561844582617	7
5	71	4.851640534202	8
5	71	4.851640534202	9
5	71	4.851640534202	10
5	71	4.851640534202	11
5	98	7.487624669902	12
5	98	7.487624669902	13
5	98	7.487624669902	14
5	98	7.487624669902	15
5	120	8.924132520952	16
5	120	8.924132520952	17
5	120	8.924132520952	18
5	120	8.924132520952	19
5	152	11.51890674622	20
5	152	11.51890674622	21
5	152	11.51890674622	22
5	152	11.51890674622	23
5	175	13.250362103813	24
5	175	13.250362103813	25
5	175	13.250362103813	26
5	175	13.250362103813	27
5	201	14.931111375835	28
5	201	14.931111375835	29
5	201	14.931111375835	30
5	201	14.931111375835	31
5	217	16.81651421485	32
5	217	16.81651421485	33
5	217	16.81651421485	34
5	217	16.81651421485	35
5	254	23.203027058785	36
5	254	23.203027058785	37
5	254	23.203027058785	38
5	254	23.203027058785	39
5	279	28.778106177135	40
5	279	28.778106177135	41
5	279	28.778106177135	42
5	279	28.778106177135	43
5	304	31.296344584488	44
5	304	31.296344584488	45
5	304	31.296344584488	46
5	304	31.296344584488	47
5	345	34.850463897791	48
5	345	34.850463897791	49
5	345	34.850463897791	50
5	345	34.850463897791	51
5	374	36.242445841974	52
5	374	36.242445841974	53
5	374	36.242445841974	54
5	374	36.242445841974	55
5	390	38.183881573307	56
5	390	38.183881573307	57
5	390	38.183881573307	58
5	390	38.183881573307	59
5	416	40.726779006097	60
5	416	40.726779006097	61
5	416	40.726779006097	62
5	416	40.726779006097	63
5	451	44.170094329415	64
5	451	44.170094329415	65
5	451	44.170094329415	66
5	451	44.170094329415	67
5	477	45.247759924404	68
5	477	45.247759924404	69
5	477	45.247759924404	70
5	477	45.247759924404	71
5	509	49.481076035001	72
5	509	49.481076035001	73
5	509	49.481076035001	74
5	509	49.481076035001	75
5	530	52.981567124138	76
5	530	52.981567124138	77
5	530	52.981567124138	78
5	530	52.981567124138	79
5	555	55.630416692302	80
5	555	55.630416692302	81
5	555	55.630416692302	82
5	555	55.630416692302	83
5	588	57.328941675837	84
5	588	57.328941675837	85
5	588	57.328941675837	86
5	588	57.328941675837	87
5	607	58.547250819308	88
5	607	58.547250819308	89
5	607	58.547250819308	90
5	607	58.547250819308	91
5	636	61.803140315959	92
5	636	61.803140315959	93
5	636	61.803140315959	94
5	636	61.803140315959	95
5	648	63.332189997397	96
5	648	63.332189997397	97
5	648	63.332189997397	98
5	648	63.332189997397	99
5	672	64.913948081124	100
5	672	64.913948081124	101
5	672	64.913948081124	102
5	672	64.913948081124	103
5	700	68.642026209999	104
5	700	68.642026209999	105
5	700	68.642026209999	106
5	700	68.642026209999	107
5	719	70.034480667574	108
5	719	70.034480667574	109
5	719	70.034480667574	110
5	719	70.034480667574	111
5	754	73.281006865027	112
5	754	73.281006865027	113
5	754	73.281006865027	114
5	754	73.281006865027	115
5	775	75.271722811897	116
5	775	75.271722811897	117
5	775	75.271722811897	118
5	775	75.271722811897	119
5	811	78.524554168796	120
5	811	78.524554168796	121
5	811	78.524554168796	122
5	811	78.524554168796	123
5	823	80.295623478678	124
5	823	80.295623478678	125
5	823	80.295623478678	126
5	823	80.295623478678	127
5	851	83.781566058142	128
5	851	83.781566058142	129
5	851	83.781566058142	130
5	851	83.781566058142	131
5	867	85.005285865567	132
5	867	85.005285865567	133
5	867	85.005285865567	134
5	867	85.005285865567	135
5	894	86.7119949952	136
5	894	86.7119949952	137
5	894	86.7119949952	138
5	894	86.7119949952	139
5	937	91.333274486983	140
5	937	91.333274486983	141
5	937	91.333274486983	142
5	937	91.333274486983	143
5	960	93.119734614533	144
5	960	93.119734614533	145
5	960	93.119734614533	146
5	960	93.119734614533	147
5	984	95.060295980588	148
5	984	95.060295980588	149
5	984	95.060295980588	150
5	984	95.060295980588	151
5	1004	97.694756049998	152
5	1004	97.694756049998	153
5	1004	97.694756049998	154
5	1004	97.694756049998	155
5	1027	99.530257493836	156
5	1027	99.530257493836	157
5	1027	99.530257493836	158
5	1027	99.530257493836	159
5	1051	106.900894660953	160
5	1051	106.900894660953	161
5	1051	106.900894660953	162
5	1051	106.900894660953	163
5	1077	111.383218064185	164
5	1077	111.383218064185	165
5	1077	111.383218064185	166
5	1077	111.383218064185	167
5	1106	114.498607524988	168
5	1106	114.498607524988	169
5	1106	114.498607524988	170
5	1106	114.498607524988	171
5	1125	115.545001437196	172
5	1125	115.545001437196	173
5	1125	115.545001437196	174
5	1125	115.545001437196	175
5	1148	117.222426826433	176
5	1148	117.222426826433	177
5	1148	117.222426826433	178
5	1148	117.222426826433	179
5	1181	121.597293724546	180
5	1181	121.597293724546	181
5	1181	121.597293724546	182
5	1181	121.597293724546	183
5	1212	126.106890278047	184
5	1212	126.106890278047	185
5	1212	126.106890278047	186
5	1212	126.106890278047	187
5	1234	127.36502477971	188
5	1234	127.36502477971	189
5	1234	127.36502477971	190
5	1234	127.36502477971	191
5	1257	131.812455296928	192
5	1257	131.812455296928	193
5	1257	131.812455296928	194
5	1257	131.812455296928	195
5	1281	133.535452165551	196
5	1281	133.535452165551	197
5	1281	133.535452165551	198
5	1281	133.535452165551	199
5	1311	134.992340941984	200
5	1311	134.992340941984	201
5	1311	134.992340941984	202
5	1311	134.992340941984	203
5	1334	136.856126501201	204
5	1334	136.856126501201	205
5	1334	136.856126501201	206
5	1334	136.856126501201	207
5	1350	138.77614392219	208
5	1350	138.77614392219	209
5	1350	138.77614392219	210
5	1350	138.77614392219	211
5	1379	145.11658105616	212
5	1379	145.11658105616	213
5	1379	145.11658105616	214
5	1379	145.11658105616	215
5	1404	146.295718435739	216
5	1404	146.295718435739	217
5	1404	146.295718435739	218
5	1404	146.295718435739	219
5	1426	149.469107753791	220
5	1426	149.469107753791	221
5	1426	149.469107753791	222
5	1426	149.469107753791	223
5	1454	154.26720202176	224
5	1454	154.26720202176	225
5	1454	154.26720202176	226
5	1454	154.26720202176	227
5	1481	155.389809713462	228
5	1481	155.389809713462	229
5	1481	155.389809713462	230
5	1481	155.389809713462	231
5	1503	159.846749597392	232
5	1503	159.846749597392	233
5	1503	159.846749597392	234
5	1503	159.846749597392	235
5	1528	162.670654360444	236
5	1528	162.670654360444	237
5	1528	162.670654360444	238
5	1528	162.670654360444	239
5	1553	164.231781159565	240
5	1553	164.231781159565	241
5	1553	164.231781159565	242
5	1553	164.231781159565	243
5	1575	165.976542857034	244
5	1575	165.976542857034	245
5	1575	165.976542857034	246
5	1575	165.976542857034	247
5	1599	167.579533439313	248
5	1599	167.579533439313	249
5	1599	167.579533439313	250
5	1599	167.579533439313	251
5	1623	169.008520600414	252
5	1623	169.008520600414	253
5	1623	169.008520600414	254
5	1623	169.008520600414	255
5	1643	170.419021624761	256
5	1643	170.419021624761	257
5	1643	170.419021624761	258
5	1643	170.419021624761	259
5	1666	172.332309226631	260
5	1666	172.332309226631	261
5	1666	172.332309226631	262
5	1666	172.332309226631	263
5	1696	173.773193605789	264
5	1696	173.773193605789	265
5	1696	173.773193605789	266
5	1696	173.773193605789	267
5	1723	175.569520013409	268
5	1723	175.569520013409	269
5	1723	175.569520013409	270
5	1723	175.569520013409	271
5	1738	178.343581346122	272
5	1738	178.343581346122	273
5	1738	178.343581346122	274
5	1738	178.343581346122	275
5	1770	184.984559509389	276
5	1770	184.984559509389	277
5	1770	184.984559509389	278
5	1770	184.984559509389	279
5	1794	186.137854970054	280
5	1794	186.137854970054	281
5	1794	186.137854970054	282
5	1794	186.137854970054	283
5	1815	187.685320364311	284
5	1815	187.685320364311	285
5	1815	187.685320364311	286
5	1815	187.685320364311	287
5	1847	191.404785637937	288
5	1847	191.404785637937	289
5	1847	191.404785637937	290
5	1847	191.404785637937	291
5	1862	192.538532716223	292
5	1862	192.538532716223	293
5	1862	192.538532716223	294
5	1862	192.538532716223	295
5	1883	194.256465678199	296
5	1883	194.256465678199	297
5	1883	194.256465678199	298
5	1883	194.256465678199	299
5	1899	196.9834909579	300
5	1899	196.9834909579	301
5	1899	196.9834909579	302
5	1899	196.9834909579	303
5	1932	201.780104419772	304
5	1932	201.780104419772	305
5	1932	201.780104419772	306
5	1932	201.780104419772	307
5	1950	203.411832342624	308
5	1950	203.411832342624	309
5	1950	203.411832342624	310
5	1950	203.411832342624	311
5	1979	206.411543621918	312
5	1979	206.411543621918	313
5	1979	206.411543621918	314
5	1979	206.411543621918	315
5	2008	209.65098749246	316
5	2008	209.65098749246	317
5	2008	209.65098749246	318
5	2008	209.65098749246	319
5	2034	211.376609020739	320
5	2034	211.376609020739	321
5	2034	211.376609020739	322
5	2034	211.376609020739	323
5	2052	212.802690859837	324
5	2052	212.802690859837	325
5	2052	212.802690859837	326
5	2052	212.802690859837	327
5	2077	214.298826881909	328
5	2077	214.298826881909	329
5	2077	214.298826881909	330
5	2077	214.298826881909	331
5	2102	217.454889165227	332
5	2102	217.454889165227	333
5	2102	217.454889165227	334
5	2102	217.454889165227	335
5	2129	222.521586879156	336
5	2129	222.521586879156	337
5	2129	222.521586879156	338
5	2129	222.521586879156	339
5	2158	223.617902919516	340
5	2158	223.617902919516	341
5	2158	223.617902919516	342
5	2158	223.617902919516	343
5	2181	225.309092986183	344
5	2181	225.309092986183	345
5	2181	225.309092986183	346
5	2181	225.309092986183	347
5	2197	227.145966679674	348
5	2197	227.145966679674	349
5	2197	227.145966679674	350
5	2197	227.145966679674	351
5	2221	228.840514923633	352
5	2221	228.840514923633	353
5	2221	228.840514923633	354
5	2221	228.840514923633	355
5	2246	232.304921694775	356
5	2246	232.304921694775	357
5	2246	232.304921694775	358
5	2246	232.304921694775	359
5	2271	234.209297701486	360
5	2271	234.209297701486	361
5	2271	234.209297701486	362
5	2271	234.209297701486	363
5	2305	237.254496816739	364
5	2305	237.254496816739	365
5	2305	237.254496816739	366
5	2305	237.254496816739	367
6	35	2.491412395314	0
6	85	4.872347327744	1
6	106	7.509873354211	2
6	133	8.952575686135	3
6	187	13.27410176226	4
6	232	16.843511005323	5
6	293	28.808121632711	6
6	357	34.880263141578	7
6	405	38.236154185513	8
6	465	44.194746167006	9
6	519	49.504261939831	10
6	544	53.016172399529	11
6	567	55.668186102485	12
6	615	58.558617526785	13
6	635	61.800698721643	14
6	686	64.940843623952	15
6	734	70.11419544111	16
6	787	75.293418832998	17
6	810	78.516670716693	18
6	878	85.026842850045	19
6	925	89.57367243009	20
6	948	91.36317155692	21
6	971	93.14351491761	22
6	994	95.085608659411	23
6	1019	97.73376958364	24
6	1065	106.925374085431	25
6	1092	111.435780117282	26
6	1140	115.569199070222	27
6	1161	117.25226984692	28
6	1195	121.63073134478	29
6	1215	126.107234989769	30
6	1333	136.836182990317	31
6	1364	138.806317704707	32
6	1393	145.140075758914	33
6	1436	149.511086364406	34
6	1466	154.282086274248	35
6	1491	155.409871542001	36
6	1515	159.869095134226	37
6	1543	162.698856507929	38
6	1566	164.26387309181	39
6	1589	165.992531212406	40
6	1612	167.601753375655	41
6	1675	172.360414742905	42
6	1722	175.547609963019	43
6	1752	178.368483687242	44
6	1823	187.705546292345	45
6	1850	191.408262818751	46
6	1874	192.568182847912	47
6	1959	203.435135498177	48
6	2020	209.685773419968	49
6	2039	211.384466654934	50
6	2066	212.823745669423	51
6	2114	217.480579537717	52
6	2140	222.543128490989	53
6	2166	223.640963619837	54
6	2212	227.180167348736	55
6	2260	232.331169495192	56
6	2283	234.281643609033	57
6	2316	237.28405463263	58

