version 2
run General-4-20230921-21:40:26-6208
attr configname General
attr datetime 20230921-21:40:26
attr experiment General
attr inifile omnetpp.ini
attr iterationvars ""
attr iterationvarsf ""
attr measurement ""
attr network Network2
attr processid 6208
attr repetition 4
attr replication #4
attr resultdir results
attr runnumber 4
attr seedset 4
param Network2.node[*].transmissionTime "uniform(1s, 2s)"
param Network2.node[*].delayTime "uniform(0.01s, 0.2s)"
param Network2.node[*].processingTime exponential(0.01s)
param Network2.node[*].lossProbability 0.3

vector 0 Network2.node[0] txVector ETV
vector 1 Network2.node[1] txVector ETV
vector 2 Network2.node[6] txVector ETV
vector 3 Network2.node[3] txVector ETV
vector 4 Network2.node[2] txVector ETV
vector 5 Network2.node[4] txVector ETV
vector 6 Network2.node[5] rxVector ETV
0	1	0.193735669288	0
0	24	2.094357123985	1
0	47	3.957350359219	2
0	49	5.403699559779	3
0	51	6.845048093158	4
0	74	7.910757631916	5
0	97	9.548367880672	6
0	120	10.801277489789	7
0	143	12.705945079835	8
0	153	14.512961626207	9
0	173	16.104835271989	10
0	193	17.891588417967	11
0	213	19.212204064862	12
0	236	21.149338570344	13
0	238	22.32311836529	14
0	240	24.26570422078	15
0	263	25.731193897468	16
0	286	27.235094880606	17
0	309	29.160903476332	18
0	332	30.3878844957	19
0	334	32.356558625739	20
0	357	34.164107574535	21
0	377	35.184049934301	22
0	396	36.486417285086	23
0	403	38.347073150252	24
0	426	39.632317743882	25
0	428	41.004151455046	26
0	430	42.958370548825	27
0	432	44.015576469165	28
0	434	45.564381591662	29
0	457	47.164179081249	30
0	480	48.276053397602	31
0	503	49.679863657721	32
0	526	51.214883824263	33
0	549	52.236213664908	34
0	564	53.501129388029	35
0	566	55.139992496616	36
0	589	56.568147477147	37
0	612	57.617472252494	38
0	635	59.017743951327	39
0	658	60.387981247076	40
0	681	62.296490727843	41
0	683	63.636856889737	42
0	685	64.714728093625	43
0	705	65.772309432656	44
0	707	66.901018927724	45
0	730	68.819202229067	46
0	732	70.615644266282	47
0	755	72.522579383722	48
0	774	73.795471900061	49
0	776	75.492550458212	50
0	799	76.995215942769	51
0	818	78.782263915206	52
0	841	80.616381256527	53
0	860	81.904142016231	54
0	862	83.38249254661	55
0	864	84.46531607482	56
0	887	86.429065516604	57
0	910	87.657789295925	58
0	933	88.956116291614	59
0	956	90.755702699687	60
0	958	92.213461907267	61
0	960	94.171580699192	62
0	975	96.057038602572	63
0	998	97.986957885711	64
0	1018	99.748143440499	65
0	1038	101.203226341321	66
0	1040	102.324400152466	67
0	1055	103.7391178982	68
0	1078	105.18779802361	69
0	1080	106.363893210808	70
0	1103	107.407475121705	71
0	1126	108.536175616471	72
0	1128	109.757104476368	73
0	1130	111.747772293085	74
0	1153	113.667422508042	75
0	1176	115.233983485181	76
0	1178	116.609548404267	77
0	1180	118.21881195499	78
0	1190	119.340072489962	79
0	1197	121.31311900766	80
0	1220	122.794879435714	81
0	1243	123.865617421841	82
0	1266	124.880084648648	83
0	1268	126.172029447196	84
0	1287	127.326602845605	85
0	1310	128.976124438842	86
0	1312	130.479293257616	87
0	1335	132.34343609718	88
0	1358	133.474815993955	89
0	1381	135.066890386086	90
0	1401	136.193395365415	91
0	1424	138.036795710832	92
0	1447	139.662942485804	93
0	1449	140.689795841616	94
0	1472	142.597569994083	95
0	1495	143.96219934748	96
0	1518	145.083914806754	97
0	1541	146.199083567052	98
0	1543	147.784577076477	99
0	1566	149.057384091117	100
0	1589	150.940003378703	101
0	1608	152.162933834516	102
0	1631	153.209164807959	103
0	1633	154.562200982044	104
0	1656	155.837006451482	105
0	1658	157.227366168438	106
0	1681	158.459627920915	107
0	1704	160.426222592746	108
0	1706	161.581528999996	109
0	1729	163.34953826006	110
0	1752	165.082744325199	111
0	1775	166.609745879113	112
0	1794	168.049443423203	113
0	1796	169.932501616343	114
0	1798	171.730080517861	115
0	1821	173.244722302924	116
0	1844	174.882004796914	117
0	1867	176.694098754241	118
0	1890	177.980496879588	119
0	1913	179.944126160271	120
0	1915	181.157808154277	121
0	1917	182.785614789385	122
0	1919	184.691922518113	123
0	1942	186.17803678514	124
0	1952	187.957929596692	125
0	1954	189.901280967207	126
0	1977	191.509871403608	127
0	2000	193.214749393673	128
0	2020	194.897309568399	129
0	2043	196.786056445367	130
0	2045	198.565117851519	131
0	2064	199.57293929012	132
0	2087	201.334387040385	133
0	2110	203.038422956052	134
0	2133	204.508706874135	135
0	2135	205.685613085204	136
0	2137	206.777267897655	137
0	2157	207.865090588494	138
0	2180	209.723914079289	139
0	2182	211.289628122854	140
0	2184	213.100155841713	141
0	2207	214.731296715015	142
0	2230	216.374210092859	143
0	2253	217.793392643487	144
0	2276	219.033535810109	145
0	2299	220.417708543284	146
0	2322	221.67155474044	147
0	2345	223.471280418258	148
0	2368	224.888390169401	149
0	2370	226.000690716939	150
0	2372	227.15780217053	151
0	2395	228.997645589678	152
0	2415	230.035000770508	153
0	2417	232.013629249452	154
0	2440	233.200404657206	155
0	2463	234.227042975525	156
0	2486	235.475829688056	157
0	2488	237.35219125372	158
0	2511	239.172947018562	159
1	3	0.205631491707	0
1	3	0.205631491707	1
1	3	0.205631491707	2
1	3	0.205631491707	3
1	26	2.145341055476	4
1	26	2.145341055476	5
1	26	2.145341055476	6
1	26	2.145341055476	7
1	53	6.856982256749	8
1	53	6.856982256749	9
1	53	6.856982256749	10
1	53	6.856982256749	11
1	76	7.925890843307	12
1	76	7.925890843307	13
1	76	7.925890843307	14
1	76	7.925890843307	15
1	99	9.558853540263	16
1	99	9.558853540263	17
1	99	9.558853540263	18
1	99	9.558853540263	19
1	122	10.816466491353	20
1	122	10.816466491353	21
1	122	10.816466491353	22
1	122	10.816466491353	23
1	145	12.717002912852	24
1	145	12.717002912852	25
1	145	12.717002912852	26
1	145	12.717002912852	27
1	155	14.552990133692	28
1	155	14.552990133692	29
1	155	14.552990133692	30
1	155	14.552990133692	31
1	175	16.126535628056	32
1	175	16.126535628056	33
1	175	16.126535628056	34
1	175	16.126535628056	35
1	195	17.923286203228	36
1	195	17.923286203228	37
1	195	17.923286203228	38
1	195	17.923286203228	39
1	215	19.229188638866	40
1	215	19.229188638866	41
1	215	19.229188638866	42
1	215	19.229188638866	43
1	242	24.290100904153	44
1	242	24.290100904153	45
1	242	24.290100904153	46
1	242	24.290100904153	47
1	265	25.750734328375	48
1	265	25.750734328375	49
1	265	25.750734328375	50
1	265	25.750734328375	51
1	288	27.257840697585	52
1	288	27.257840697585	53
1	288	27.257840697585	54
1	288	27.257840697585	55
1	311	29.185774423745	56
1	311	29.185774423745	57
1	311	29.185774423745	58
1	311	29.185774423745	59
1	336	32.36746789548	60
1	336	32.36746789548	61
1	336	32.36746789548	62
1	336	32.36746789548	63
1	359	34.17519228625	64
1	359	34.17519228625	65
1	359	34.17519228625	66
1	359	34.17519228625	67
1	379	35.200352267927	68
1	379	35.200352267927	69
1	379	35.200352267927	70
1	379	35.200352267927	71
1	398	36.498221935276	72
1	398	36.498221935276	73
1	398	36.498221935276	74
1	398	36.498221935276	75
1	405	38.360226616901	76
1	405	38.360226616901	77
1	405	38.360226616901	78
1	405	38.360226616901	79
1	436	45.607018576421	80
1	436	45.607018576421	81
1	436	45.607018576421	82
1	436	45.607018576421	83
1	459	47.182170276192	84
1	459	47.182170276192	85
1	459	47.182170276192	86
1	459	47.182170276192	87
1	482	48.294432097933	88
1	482	48.294432097933	89
1	482	48.294432097933	90
1	482	48.294432097933	91
1	505	49.693351336056	92
1	505	49.693351336056	93
1	505	49.693351336056	94
1	505	49.693351336056	95
1	528	51.23365259845	96
1	528	51.23365259845	97
1	528	51.23365259845	98
1	528	51.23365259845	99
1	551	52.267533787335	100
1	551	52.267533787335	101
1	551	52.267533787335	102
1	551	52.267533787335	103
1	568	55.157040789443	104
1	568	55.157040789443	105
1	568	55.157040789443	106
1	568	55.157040789443	107
1	591	56.580317988133	108
1	591	56.580317988133	109
1	591	56.580317988133	110
1	591	56.580317988133	111
1	614	57.635940696883	112
1	614	57.635940696883	113
1	614	57.635940696883	114
1	614	57.635940696883	115
1	637	59.033052811859	116
1	637	59.033052811859	117
1	637	59.033052811859	118
1	637	59.033052811859	119
1	660	60.421910767621	120
1	660	60.421910767621	121
1	660	60.421910767621	122
1	660	60.421910767621	123
1	687	64.728175759541	124
1	687	64.728175759541	125
1	687	64.728175759541	126
1	687	64.728175759541	127
1	709	66.914465597524	128
1	709	66.914465597524	129
1	709	66.914465597524	130
1	709	66.914465597524	131
1	734	70.629540100438	132
1	734	70.629540100438	133
1	734	70.629540100438	134
1	734	70.629540100438	135
1	757	72.538403665563	136
1	757	72.538403665563	137
1	757	72.538403665563	138
1	757	72.538403665563	139
1	778	75.511226975813	140
1	778	75.511226975813	141
1	778	75.511226975813	142
1	778	75.511226975813	143
1	801	77.012448374323	144
1	801	77.012448374323	145
1	801	77.012448374323	146
1	801	77.012448374323	147
1	820	78.800737284564	148
1	820	78.800737284564	149
1	820	78.800737284564	150
1	820	78.800737284564	151
1	843	80.645951291997	152
1	843	80.645951291997	153
1	843	80.645951291997	154
1	843	80.645951291997	155
1	866	84.493346255821	156
1	866	84.493346255821	157
1	866	84.493346255821	158
1	866	84.493346255821	159
1	889	86.453776208905	160
1	889	86.453776208905	161
1	889	86.453776208905	162
1	889	86.453776208905	163
1	912	87.692111148781	164
1	912	87.692111148781	165
1	912	87.692111148781	166
1	912	87.692111148781	167
1	935	88.975447824847	168
1	935	88.975447824847	169
1	935	88.975447824847	170
1	935	88.975447824847	171
1	962	94.187789646257	172
1	962	94.187789646257	173
1	962	94.187789646257	174
1	962	94.187789646257	175
1	977	96.073304335825	176
1	977	96.073304335825	177
1	977	96.073304335825	178
1	977	96.073304335825	179
1	1000	98.018128774391	180
1	1000	98.018128774391	181
1	1000	98.018128774391	182
1	1000	98.018128774391	183
1	1020	99.761966724428	184
1	1020	99.761966724428	185
1	1020	99.761966724428	186
1	1020	99.761966724428	187
1	1042	102.345635783794	188
1	1042	102.345635783794	189
1	1042	102.345635783794	190
1	1042	102.345635783794	191
1	1057	103.762181528587	192
1	1057	103.762181528587	193
1	1057	103.762181528587	194
1	1057	103.762181528587	195
1	1082	106.373902281672	196
1	1082	106.373902281672	197
1	1082	106.373902281672	198
1	1082	106.373902281672	199
1	1105	107.426996719378	200
1	1105	107.426996719378	201
1	1105	107.426996719378	202
1	1105	107.426996719378	203
1	1132	111.767666108369	204
1	1132	111.767666108369	205
1	1132	111.767666108369	206
1	1132	111.767666108369	207
1	1155	113.684397919247	208
1	1155	113.684397919247	209
1	1155	113.684397919247	210
1	1155	113.684397919247	211
1	1182	118.233735096263	212
1	1182	118.233735096263	213
1	1182	118.233735096263	214
1	1182	118.233735096263	215
1	1192	119.350492729936	216
1	1192	119.350492729936	217
1	1192	119.350492729936	218
1	1192	119.350492729936	219
1	1199	121.338591494009	220
1	1199	121.338591494009	221
1	1199	121.338591494009	222
1	1199	121.338591494009	223
1	1222	122.805782002928	224
1	1222	122.805782002928	225
1	1222	122.805782002928	226
1	1222	122.805782002928	227
1	1245	123.880213736586	228
1	1245	123.880213736586	229
1	1245	123.880213736586	230
1	1245	123.880213736586	231
1	1270	126.201195494639	232
1	1270	126.201195494639	233
1	1270	126.201195494639	234
1	1270	126.201195494639	235
1	1289	127.338156611813	236
1	1289	127.338156611813	237
1	1289	127.338156611813	238
1	1289	127.338156611813	239
1	1314	130.495797853767	240
1	1314	130.495797853767	241
1	1314	130.495797853767	242
1	1314	130.495797853767	243
1	1337	132.368655192697	244
1	1337	132.368655192697	245
1	1337	132.368655192697	246
1	1337	132.368655192697	247
1	1360	133.497037747727	248
1	1360	133.497037747727	249
1	1360	133.497037747727	250
1	1360	133.497037747727	251
1	1383	135.089542715507	252
1	1383	135.089542715507	253
1	1383	135.089542715507	254
1	1383	135.089542715507	255
1	1403	136.204870054547	256
1	1403	136.204870054547	257
1	1403	136.204870054547	258
1	1403	136.204870054547	259
1	1426	138.051838891925	260
1	1426	138.051838891925	261
1	1426	138.051838891925	262
1	1426	138.051838891925	263
1	1451	140.707118898462	264
1	1451	140.707118898462	265
1	1451	140.707118898462	266
1	1451	140.707118898462	267
1	1474	142.611994117038	268
1	1474	142.611994117038	269
1	1474	142.611994117038	270
1	1474	142.611994117038	271
1	1497	144.004622044699	272
1	1497	144.004622044699	273
1	1497	144.004622044699	274
1	1497	144.004622044699	275
1	1520	145.101516757383	276
1	1520	145.101516757383	277
1	1520	145.101516757383	278
1	1520	145.101516757383	279
1	1545	147.8055111165	280
1	1545	147.8055111165	281
1	1545	147.8055111165	282
1	1545	147.8055111165	283
1	1568	149.097643385695	284
1	1568	149.097643385695	285
1	1568	149.097643385695	286
1	1568	149.097643385695	287
1	1591	150.983933473389	288
1	1591	150.983933473389	289
1	1591	150.983933473389	290
1	1591	150.983933473389	291
1	1610	152.176601218167	292
1	1610	152.176601218167	293
1	1610	152.176601218167	294
1	1610	152.176601218167	295
1	1635	154.574357865295	296
1	1635	154.574357865295	297
1	1635	154.574357865295	298
1	1635	154.574357865295	299
1	1660	157.240366934844	300
1	1660	157.240366934844	301
1	1660	157.240366934844	302
1	1660	157.240366934844	303
1	1683	158.472344422555	304
1	1683	158.472344422555	305
1	1683	158.472344422555	306
1	1683	158.472344422555	307
1	1708	161.602545835626	308
1	1708	161.602545835626	309
1	1708	161.602545835626	310
1	1708	161.602545835626	311
1	1731	163.398512821367	312
1	1731	163.398512821367	313
1	1731	163.398512821367	314
1	1731	163.398512821367	315
1	1754	165.095670207758	316
1	1754	165.095670207758	317
1	1754	165.095670207758	318
1	1754	165.095670207758	319
1	1777	166.62212051151	320
1	1777	166.62212051151	321
1	1777	166.62212051151	322
1	1777	166.62212051151	323
1	1800	171.747392949146	324
1	1800	171.747392949146	325
1	1800	171.747392949146	326
1	1800	171.747392949146	327
1	1823	173.267135226844	328
1	1823	173.267135226844	329
1	1823	173.267135226844	330
1	1823	173.267135226844	331
1	1846	174.908439602137	332
1	1846	174.908439602137	333
1	1846	174.908439602137	334
1	1846	174.908439602137	335
1	1869	176.718377040508	336
1	1869	176.718377040508	337
1	1869	176.718377040508	338
1	1869	176.718377040508	339
1	1892	177.992419221449	340
1	1892	177.992419221449	341
1	1892	177.992419221449	342
1	1892	177.992419221449	343
1	1921	184.709797147556	344
1	1921	184.709797147556	345
1	1921	184.709797147556	346
1	1921	184.709797147556	347
1	1944	186.198268168666	348
1	1944	186.198268168666	349
1	1944	186.198268168666	350
1	1944	186.198268168666	351
1	1956	189.913282841585	352
1	1956	189.913282841585	353
1	1956	189.913282841585	354
1	1956	189.913282841585	355
1	1979	191.52045025603	356
1	1979	191.52045025603	357
1	1979	191.52045025603	358
1	1979	191.52045025603	359
1	2002	193.234385468603	360
1	2002	193.234385468603	361
1	2002	193.234385468603	362
1	2002	193.234385468603	363
1	2022	194.912150723483	364
1	2022	194.912150723483	365
1	2022	194.912150723483	366
1	2022	194.912150723483	367
1	2047	198.594584480933	368
1	2047	198.594584480933	369
1	2047	198.594584480933	370
1	2047	198.594584480933	371
1	2066	199.590758675429	372
1	2066	199.590758675429	373
1	2066	199.590758675429	374
1	2066	199.590758675429	375
1	2089	201.351144031538	376
1	2089	201.351144031538	377
1	2089	201.351144031538	378
1	2089	201.351144031538	379
1	2112	203.050348188761	380
1	2112	203.050348188761	381
1	2112	203.050348188761	382
1	2112	203.050348188761	383
1	2139	206.800213466309	384
1	2139	206.800213466309	385
1	2139	206.800213466309	386
1	2139	206.800213466309	387
1	2159	207.88613031589	388
1	2159	207.88613031589	389
1	2159	207.88613031589	390
1	2159	207.88613031589	391
1	2186	213.111108414042	392
1	2186	213.111108414042	393
1	2186	213.111108414042	394
1	2186	213.111108414042	395
1	2209	214.74438278343	396
1	2209	214.74438278343	397
1	2209	214.74438278343	398
1	2209	214.74438278343	399
1	2232	216.389122840558	400
1	2232	216.389122840558	401
1	2232	216.389122840558	402
1	2232	216.389122840558	403
1	2255	217.812575389122	404
1	2255	217.812575389122	405
1	2255	217.812575389122	406
1	2255	217.812575389122	407
1	2278	219.046493097195	408
1	2278	219.046493097195	409
1	2278	219.046493097195	410
1	2278	219.046493097195	411
1	2301	220.47657398829	412
1	2301	220.47657398829	413
1	2301	220.47657398829	414
1	2301	220.47657398829	415
1	2324	221.710019603664	416
1	2324	221.710019603664	417
1	2324	221.710019603664	418
1	2324	221.710019603664	419
1	2347	223.490101557717	420
1	2347	223.490101557717	421
1	2347	223.490101557717	422
1	2347	223.490101557717	423
1	2374	227.170533761008	424
1	2374	227.170533761008	425
1	2374	227.170533761008	426
1	2374	227.170533761008	427
1	2397	229.013815237877	428
1	2397	229.013815237877	429
1	2397	229.013815237877	430
1	2397	229.013815237877	431
1	2419	232.032544350166	432
1	2419	232.032544350166	433
1	2419	232.032544350166	434
1	2419	232.032544350166	435
1	2442	233.214614260349	436
1	2442	233.214614260349	437
1	2442	233.214614260349	438
1	2442	233.214614260349	439
1	2465	234.239207651425	440
1	2465	234.239207651425	441
1	2465	234.239207651425	442
1	2465	234.239207651425	443
1	2490	237.363181509479	444
1	2490	237.363181509479	445
1	2490	237.363181509479	446
1	2490	237.363181509479	447
1	2513	239.184726905473	448
1	2513	239.184726905473	449
1	2513	239.184726905473	450
1	2513	239.184726905473	451
2	8	0.218066095948	0
2	8	0.218066095948	1
2	31	2.155431322606	2
2	31	2.155431322606	3
2	59	6.874488088178	4
2	59	6.874488088178	5
2	81	7.938414411143	6
2	81	7.938414411143	7
2	110	9.585508594371	8
2	110	9.585508594371	9
2	128	10.839688093505	10
2	128	10.839688093505	11
2	150	12.734769825567	12
2	150	12.734769825567	13
2	233	19.280756603695	14
2	233	19.280756603695	15
2	248	24.300982469012	16
2	248	24.300982469012	17
2	271	25.770801119902	18
2	271	25.770801119902	19
2	302	27.315069488976	20
2	302	27.315069488976	21
2	317	29.201654022443	22
2	317	29.201654022443	23
2	345	32.396860085124	24
2	345	32.396860085124	25
2	389	35.229686918464	26
2	389	35.229686918464	27
2	410	38.371541698642	28
2	410	38.371541698642	29
2	441	45.619008862488	30
2	441	45.619008862488	31
2	464	47.193480356257	32
2	464	47.193480356257	33
2	493	48.317939606679	34
2	493	48.317939606679	35
2	512	49.712369006562	36
2	512	49.712369006562	37
2	542	51.265304329452	38
2	542	51.265304329452	39
2	556	52.28428560582	40
2	556	52.28428560582	41
2	577	55.200688074011	42
2	577	55.200688074011	43
2	596	56.59091257035	44
2	596	56.59091257035	45
2	619	57.649852650319	46
2	619	57.649852650319	47
2	648	59.060073211835	48
2	648	59.060073211835	49
2	678	60.498680750379	50
2	678	60.498680750379	51
2	727	66.971652347766	52
2	727	66.971652347766	53
2	740	70.652315365506	54
2	740	70.652315365506	55
2	763	72.552355028523	56
2	763	72.552355028523	57
2	784	75.529395401886	58
2	784	75.529395401886	59
2	806	77.022651029793	60
2	806	77.022651029793	61
2	835	78.843421756076	62
2	835	78.843421756076	63
2	848	80.666091764063	64
2	848	80.666091764063	65
2	871	84.517110562653	66
2	871	84.517110562653	67
2	894	86.467405173315	68
2	894	86.467405173315	69
2	923	87.735631566406	70
2	923	87.735631566406	71
2	941	88.988883230978	72
2	941	88.988883230978	73
2	967	94.202474164319	74
2	967	94.202474164319	75
2	992	96.105418793098	76
2	992	96.105418793098	77
2	1052	102.377085148182	78
2	1052	102.377085148182	79
2	1071	103.79018161586	80
2	1071	103.79018161586	81
2	1087	106.387273388373	82
2	1087	106.387273388373	83
2	1111	107.437807838134	84
2	1111	107.437807838134	85
2	1150	111.82102677736	86
2	1150	111.82102677736	87
2	1166	113.713061976214	88
2	1166	113.713061976214	89
2	1187	118.268020526034	90
2	1187	118.268020526034	91
2	1204	121.353347848471	92
2	1204	121.353347848471	93
2	1228	122.819043800476	94
2	1228	122.819043800476	95
2	1260	123.905883674741	96
2	1260	123.905883674741	97
2	1276	126.213377626025	98
2	1276	126.213377626025	99
2	1295	127.36020558213	100
2	1295	127.36020558213	101
2	1319	130.509322109578	102
2	1319	130.509322109578	103
2	1344	132.383746035174	104
2	1344	132.383746035174	105
2	1370	133.526754520856	106
2	1370	133.526754520856	107
2	1421	136.28358073461	108
2	1421	136.28358073461	109
2	1432	138.07471038189	110
2	1432	138.07471038189	111
2	1457	140.731630003846	112
2	1457	140.731630003846	113
2	1484	142.640508549181	114
2	1484	142.640508549181	115
2	1502	144.016558792804	116
2	1502	144.016558792804	117
2	1525	145.116875114062	118
2	1525	145.116875114062	119
2	1551	147.817841947419	120
2	1551	147.817841947419	121
2	1573	149.107851254252	122
2	1573	149.107851254252	123
2	1602	151.047834087991	124
2	1602	151.047834087991	125
2	1624	152.205403714825	126
2	1624	152.205403714825	127
2	1653	154.647352433353	128
2	1653	154.647352433353	129
2	1665	157.250501203935	130
2	1665	157.250501203935	131
2	1697	158.503178290804	132
2	1697	158.503178290804	133
2	1715	161.625492472513	134
2	1715	161.625492472513	135
2	1741	163.425655868313	136
2	1741	163.425655868313	137
2	1761	165.117633635196	138
2	1761	165.117633635196	139
2	1787	166.656008183558	140
2	1787	166.656008183558	141
2	1806	171.768967932128	142
2	1806	171.768967932128	143
2	1828	173.277241334106	144
2	1828	173.277241334106	145
2	1853	174.924999679819	146
2	1853	174.924999679819	147
2	1887	176.76174895208	148
2	1887	176.76174895208	149
2	1897	178.004420635022	150
2	1897	178.004420635022	151
2	1932	184.734492020131	152
2	1932	184.734492020131	153
2	1949	186.237842591455	154
2	1949	186.237842591455	155
2	1961	189.923753588909	156
2	1961	189.923753588909	157
2	1984	191.531774003895	158
2	1984	191.531774003895	159
2	2027	194.924085823239	160
2	2027	194.924085823239	161
2	2061	198.630405861797	162
2	2061	198.630405861797	163
2	2073	199.60803896759	164
2	2073	199.60803896759	165
2	2094	201.367782946704	166
2	2094	201.367782946704	167
2	2117	203.063736712958	168
2	2117	203.063736712958	169
2	2170	207.918297678207	170
2	2170	207.918297678207	171
2	2204	213.147093097813	172
2	2204	213.147093097813	173
2	2215	214.757844707952	174
2	2215	214.757844707952	175
2	2250	216.42849387717	176
2	2250	216.42849387717	177
2	2262	217.831511322226	178
2	2262	217.831511322226	179
2	2288	219.075860822953	180
2	2288	219.075860822953	181
2	2306	220.493755922487	182
2	2306	220.493755922487	183
2	2329	221.720673729369	184
2	2329	221.720673729369	185
2	2365	223.54443670212	186
2	2365	223.54443670212	187
2	2379	227.182540175876	188
2	2379	227.182540175876	189
2	2424	232.046062722132	190
2	2424	232.046062722132	191
2	2451	233.253871722508	192
2	2451	233.253871722508	193
2	2477	234.288881138179	194
2	2477	234.288881138179	195
2	2495	237.373542002081	196
2	2495	237.373542002081	197
2	2519	239.199971622072	198
2	2519	239.199971622072	199
3	9	0.227595799025	0
3	9	0.227595799025	1
3	9	0.227595799025	2
3	32	2.164437532503	3
3	32	2.164437532503	4
3	32	2.164437532503	5
3	58	6.872232243582	6
3	58	6.872232243582	7
3	58	6.872232243582	8
3	83	7.9459056259	9
3	83	7.9459056259	10
3	83	7.9459056259	11
3	116	9.623536963869	12
3	116	9.623536963869	13
3	116	9.623536963869	14
3	133	10.845221529211	15
3	133	10.845221529211	16
3	133	10.845221529211	17
3	165	14.594818815054	18
3	165	14.594818815054	19
3	165	14.594818815054	20
3	180	16.147529587113	21
3	180	16.147529587113	22
3	180	16.147529587113	23
3	200	17.936309723517	24
3	200	17.936309723517	25
3	200	17.936309723517	26
3	220	19.243457334508	27
3	220	19.243457334508	28
3	220	19.243457334508	29
3	247	24.300476485304	30
3	247	24.300476485304	31
3	247	24.300476485304	32
3	270	25.767120313477	33
3	270	25.767120313477	34
3	270	25.767120313477	35
3	298	27.301442581214	36
3	298	27.301442581214	37
3	298	27.301442581214	38
3	316	29.199928463409	39
3	316	29.199928463409	40
3	316	29.199928463409	41
3	341	32.385611603406	42
3	341	32.385611603406	43
3	341	32.385611603406	44
3	364	34.18828198791	45
3	364	34.18828198791	46
3	364	34.18828198791	47
3	390	35.234153913279	48
3	390	35.234153913279	49
3	390	35.234153913279	50
3	411	38.373378732202	51
3	411	38.373378732202	52
3	411	38.373378732202	53
3	450	45.642946227648	54
3	450	45.642946227648	55
3	450	45.642946227648	56
3	465	47.195447730852	57
3	465	47.195447730852	58
3	465	47.195447730852	59
3	492	48.317341171861	60
3	492	48.317341171861	61
3	492	48.317341171861	62
3	511	49.707463851702	63
3	511	49.707463851702	64
3	511	49.707463851702	65
3	533	51.245248367256	66
3	533	51.245248367256	67
3	533	51.245248367256	68
3	573	55.169501913607	69
3	573	55.169501913607	70
3	573	55.169501913607	71
3	598	56.596040296293	72
3	598	56.596040296293	73
3	598	56.596040296293	74
3	622	57.661846092094	75
3	622	57.661846092094	76
3	622	57.661846092094	77
3	654	59.072443656867	78
3	654	59.072443656867	79
3	654	59.072443656867	80
3	666	60.445597993374	81
3	666	60.445597993374	82
3	666	60.445597993374	83
3	692	64.754067839076	84
3	692	64.754067839076	85
3	692	64.754067839076	86
3	714	66.934943797373	87
3	714	66.934943797373	88
3	714	66.934943797373	89
3	745	70.655170623056	90
3	745	70.655170623056	91
3	745	70.655170623056	92
3	762	72.552106927933	93
3	762	72.552106927933	94
3	762	72.552106927933	95
3	789	75.532682103199	96
3	789	75.532682103199	97
3	789	75.532682103199	98
3	814	77.040440359725	99
3	814	77.040440359725	100
3	814	77.040440359725	101
3	826	78.813163864691	102
3	826	78.813163864691	103
3	826	78.813163864691	104
3	856	80.700716688438	105
3	856	80.700716688438	106
3	856	80.700716688438	107
3	872	84.521888049361	108
3	872	84.521888049361	109
3	872	84.521888049361	110
3	906	86.533945154631	111
3	906	86.533945154631	112
3	906	86.533945154631	113
3	922	87.733250039723	114
3	922	87.733250039723	115
3	922	87.733250039723	116
3	940	88.987954458957	117
3	940	88.987954458957	118
3	940	88.987954458957	119
3	982	96.084992921389	120
3	982	96.084992921389	121
3	982	96.084992921389	122
3	1005	98.028538893501	123
3	1005	98.028538893501	124
3	1005	98.028538893501	125
3	1026	99.790420851765	126
3	1026	99.790420851765	127
3	1026	99.790420851765	128
3	1062	103.772897533757	129
3	1062	103.772897533757	130
3	1062	103.772897533757	131
3	1095	106.402528127149	132
3	1095	106.402528127149	133
3	1095	106.402528127149	134
3	1110	107.437800227916	135
3	1110	107.437800227916	136
3	1110	107.437800227916	137
3	1138	111.794499342446	138
3	1138	111.794499342446	139
3	1138	111.794499342446	140
3	1161	113.706385384312	141
3	1161	113.706385384312	142
3	1161	113.706385384312	143
3	1205	121.359926094192	144
3	1205	121.359926094192	145
3	1205	121.359926094192	146
3	1227	122.815958500772	147
3	1227	122.815958500772	148
3	1227	122.815958500772	149
3	1251	123.891700346753	150
3	1251	123.891700346753	151
3	1251	123.891700346753	152
3	1275	126.212536371249	153
3	1275	126.212536371249	154
3	1275	126.212536371249	155
3	1294	127.354285151349	156
3	1294	127.354285151349	157
3	1294	127.354285151349	158
3	1328	130.53310526427	159
3	1328	130.53310526427	160
3	1328	130.53310526427	161
3	1343	132.382857689158	162
3	1343	132.382857689158	163
3	1343	132.382857689158	164
3	1372	133.53401883125	165
3	1372	133.53401883125	166
3	1372	133.53401883125	167
3	1388	135.101560011043	168
3	1388	135.101560011043	169
3	1388	135.101560011043	170
3	1408	136.230565285845	171
3	1408	136.230565285845	172
3	1408	136.230565285845	173
3	1431	138.069861580259	174
3	1431	138.069861580259	175
3	1431	138.069861580259	176
3	1468	140.7738820375	177
3	1468	140.7738820375	178
3	1468	140.7738820375	179
3	1487	142.682249826791	180
3	1487	142.682249826791	181
3	1487	142.682249826791	182
3	1503	144.019288419827	183
3	1503	144.019288419827	184
3	1503	144.019288419827	185
3	1533	145.167678980001	186
3	1533	145.167678980001	187
3	1533	145.167678980001	188
3	1550	147.816073728348	189
3	1550	147.816073728348	190
3	1550	147.816073728348	191
3	1581	149.122662284534	192
3	1581	149.122662284534	193
3	1581	149.122662284534	194
3	1615	152.189735533824	195
3	1615	152.189735533824	196
3	1615	152.189735533824	197
3	1640	154.588468909923	198
3	1640	154.588468909923	199
3	1640	154.588468909923	200
3	1673	157.278667381971	201
3	1673	157.278667381971	202
3	1673	157.278667381971	203
3	1688	158.488957753918	204
3	1688	158.488957753918	205
3	1688	158.488957753918	206
3	1713	161.616011840209	207
3	1713	161.616011840209	208
3	1713	161.616011840209	209
3	1742	163.427613887028	210
3	1742	163.427613887028	211
3	1742	163.427613887028	212
3	1759	165.111321492778	213
3	1759	165.111321492778	214
3	1759	165.111321492778	215
3	1788	166.65803880335	216
3	1788	166.65803880335	217
3	1788	166.65803880335	218
3	1805	171.762009172138	219
3	1805	171.762009172138	220
3	1805	171.762009172138	221
3	1831	173.291034481447	222
3	1831	173.291034481447	223
3	1831	173.291034481447	224
3	1851	174.921501977954	225
3	1851	174.921501977954	226
3	1851	174.921501977954	227
3	1874	176.731223496367	228
3	1874	176.731223496367	229
3	1874	176.731223496367	230
3	1898	178.012561585689	231
3	1898	178.012561585689	232
3	1898	178.012561585689	233
3	1927	184.725290904069	234
3	1927	184.725290904069	235
3	1927	184.725290904069	236
3	1973	189.967001578417	237
3	1973	189.967001578417	238
3	1973	189.967001578417	239
3	1985	191.539884801099	240
3	1985	191.539884801099	241
3	1985	191.539884801099	242
3	2012	193.274668691133	243
3	2012	193.274668691133	244
3	2012	193.274668691133	245
3	2028	194.929383164722	246
3	2028	194.929383164722	247
3	2028	194.929383164722	248
3	2052	198.604681016782	249
3	2052	198.604681016782	250
3	2052	198.604681016782	251
3	2072	199.605445589726	252
3	2072	199.605445589726	253
3	2072	199.605445589726	254
3	2102	201.38642464559	255
3	2102	201.38642464559	256
3	2102	201.38642464559	257
3	2126	203.076404781429	258
3	2126	203.076404781429	259
3	2126	203.076404781429	260
3	2149	206.829999299736	261
3	2149	206.829999299736	262
3	2149	206.829999299736	263
3	2165	207.914694902566	264
3	2165	207.914694902566	265
3	2165	207.914694902566	266
3	2192	213.126830811887	267
3	2192	213.126830811887	268
3	2192	213.126830811887	269
3	2214	214.757726101467	270
3	2214	214.757726101467	271
3	2214	214.757726101467	272
3	2238	216.410049934874	273
3	2238	216.410049934874	274
3	2238	216.410049934874	275
3	2261	217.830282208853	276
3	2261	217.830282208853	277
3	2261	217.830282208853	278
3	2295	219.125068762715	279
3	2295	219.125068762715	280
3	2295	219.125068762715	281
3	2314	220.517419664799	282
3	2314	220.517419664799	283
3	2314	220.517419664799	284
3	2333	221.732977851618	285
3	2333	221.732977851618	286
3	2333	221.732977851618	287
3	2353	223.51275526329	288
3	2353	223.51275526329	289
3	2353	223.51275526329	290
3	2388	227.205055807069	291
3	2388	227.205055807069	292
3	2388	227.205055807069	293
3	2407	229.036810516551	294
3	2407	229.036810516551	295
3	2407	229.036810516551	296
3	2425	232.051406706067	297
3	2425	232.051406706067	298
3	2425	232.051406706067	299
3	2447	233.242894955721	300
3	2447	233.242894955721	301
3	2447	233.242894955721	302
3	2476	234.28814907543	303
3	2476	234.28814907543	304
3	2476	234.28814907543	305
3	2496	237.379620157198	306
3	2496	237.379620157198	307
3	2496	237.379620157198	308
3	2526	239.220998629668	309
3	2526	239.220998629668	310
3	2526	239.220998629668	311
4	12	0.228177698444	0
4	12	0.228177698444	1
4	12	0.228177698444	2
4	12	0.228177698444	3
4	35	2.168530242006	4
4	35	2.168530242006	5
4	35	2.168530242006	6
4	35	2.168530242006	7
4	60	6.880201571506	8
4	60	6.880201571506	9
4	60	6.880201571506	10
4	60	6.880201571506	11
4	82	7.940596776278	12
4	82	7.940596776278	13
4	82	7.940596776278	14
4	82	7.940596776278	15
4	104	9.573361098308	16
4	104	9.573361098308	17
4	104	9.573361098308	18
4	104	9.573361098308	19
4	127	10.831189265006	20
4	127	10.831189265006	21
4	127	10.831189265006	22
4	127	10.831189265006	23
4	160	14.577589888939	24
4	160	14.577589888939	25
4	160	14.577589888939	26
4	160	14.577589888939	27
4	184	16.162670397387	28
4	184	16.162670397387	29
4	184	16.162670397387	30
4	184	16.162670397387	31
4	201	17.939026809437	32
4	201	17.939026809437	33
4	201	17.939026809437	34
4	201	17.939026809437	35
4	225	19.256676953126	36
4	225	19.256676953126	37
4	225	19.256676953126	38
4	225	19.256676953126	39
4	249	24.302713212923	40
4	249	24.302713212923	41
4	249	24.302713212923	42
4	249	24.302713212923	43
4	275	25.778166452097	44
4	275	25.778166452097	45
4	275	25.778166452097	46
4	275	25.778166452097	47
4	293	27.290677524106	48
4	293	27.290677524106	49
4	293	27.290677524106	50
4	293	27.290677524106	51
4	318	29.207429039182	52
4	318	29.207429039182	53
4	318	29.207429039182	54
4	318	29.207429039182	55
4	346	32.400807132098	56
4	346	32.400807132098	57
4	346	32.400807132098	58
4	346	32.400807132098	59
4	368	34.203292990814	60
4	368	34.203292990814	61
4	368	34.203292990814	62
4	368	34.203292990814	63
4	384	35.214444731528	64
4	384	35.214444731528	65
4	384	35.214444731528	66
4	384	35.214444731528	67
4	412	38.375222947307	68
4	412	38.375222947307	69
4	412	38.375222947307	70
4	412	38.375222947307	71
4	442	45.620483853302	72
4	442	45.620483853302	73
4	442	45.620483853302	74
4	442	45.620483853302	75
4	466	47.200779594903	76
4	466	47.200779594903	77
4	466	47.200779594903	78
4	466	47.200779594903	79
4	487	48.306237271087	80
4	487	48.306237271087	81
4	487	48.306237271087	82
4	487	48.306237271087	83
4	510	49.705187322302	84
4	510	49.705187322302	85
4	510	49.705187322302	86
4	510	49.705187322302	87
4	534	51.254596513744	88
4	534	51.254596513744	89
4	534	51.254596513744	90
4	534	51.254596513744	91
4	559	52.298471748647	92
4	559	52.298471748647	93
4	559	52.298471748647	94
4	559	52.298471748647	95
4	578	55.203921570222	96
4	578	55.203921570222	97
4	578	55.203921570222	98
4	578	55.203921570222	99
4	597	56.594811877791	100
4	597	56.594811877791	101
4	597	56.594811877791	102
4	597	56.594811877791	103
4	627	57.69579556173	104
4	627	57.69579556173	105
4	627	57.69579556173	106
4	627	57.69579556173	107
4	642	59.048766998984	108
4	642	59.048766998984	109
4	642	59.048766998984	110
4	642	59.048766998984	111
4	665	60.439074852054	112
4	665	60.439074852054	113
4	665	60.439074852054	114
4	665	60.439074852054	115
4	696	64.809586403341	116
4	696	64.809586403341	117
4	696	64.809586403341	118
4	696	64.809586403341	119
4	719	66.954095017014	120
4	719	66.954095017014	121
4	719	66.954095017014	122
4	719	66.954095017014	123
4	739	70.643206562702	124
4	739	70.643206562702	125
4	739	70.643206562702	126
4	739	70.643206562702	127
4	769	72.568990959462	128
4	769	72.568990959462	129
4	769	72.568990959462	130
4	769	72.568990959462	131
4	783	75.521793494204	132
4	783	75.521793494204	133
4	783	75.521793494204	134
4	783	75.521793494204	135
4	807	77.023150540867	136
4	807	77.023150540867	137
4	807	77.023150540867	138
4	807	77.023150540867	139
4	825	78.811380245469	140
4	825	78.811380245469	141
4	825	78.811380245469	142
4	825	78.811380245469	143
4	851	80.67624959806	144
4	851	80.67624959806	145
4	851	80.67624959806	146
4	851	80.67624959806	147
4	882	84.564436773424	148
4	882	84.564436773424	149
4	882	84.564436773424	150
4	882	84.564436773424	151
4	897	86.488105714634	152
4	897	86.488105714634	153
4	897	86.488105714634	154
4	897	86.488105714634	155
4	917	87.714705136028	156
4	917	87.714705136028	157
4	917	87.714705136028	158
4	917	87.714705136028	159
4	942	88.992270601172	160
4	942	88.992270601172	161
4	942	88.992270601172	162
4	942	88.992270601172	163
4	970	94.223620252205	164
4	970	94.223620252205	165
4	970	94.223620252205	166
4	970	94.223620252205	167
4	983	96.086671053175	168
4	983	96.086671053175	169
4	983	96.086671053175	170
4	983	96.086671053175	171
4	1006	98.034522072143	172
4	1006	98.034522072143	173
4	1006	98.034522072143	174
4	1006	98.034522072143	175
4	1025	99.790318309041	176
4	1025	99.790318309041	177
4	1025	99.790318309041	178
4	1025	99.790318309041	179
4	1047	102.364195837066	180
4	1047	102.364195837066	181
4	1047	102.364195837066	182
4	1047	102.364195837066	183
4	1063	103.773610861401	184
4	1063	103.773610861401	185
4	1063	103.773610861401	186
4	1063	103.773610861401	187
4	1088	106.388804321514	188
4	1088	106.388804321514	189
4	1088	106.388804321514	190
4	1088	106.388804321514	191
4	1112	107.442702612791	192
4	1112	107.442702612791	193
4	1112	107.442702612791	194
4	1112	107.442702612791	195
4	1137	111.786372444478	196
4	1137	111.786372444478	197
4	1137	111.786372444478	198
4	1137	111.786372444478	199
4	1160	113.702675651299	200
4	1160	113.702675651299	201
4	1160	113.702675651299	202
4	1160	113.702675651299	203
4	1206	121.360205849682	204
4	1206	121.360205849682	205
4	1206	121.360205849682	206
4	1206	121.360205849682	207
4	1229	122.824382638137	208
4	1229	122.824382638137	209
4	1229	122.824382638137	210
4	1229	122.824382638137	211
4	1250	123.890537846574	212
4	1250	123.890537846574	213
4	1250	123.890537846574	214
4	1250	123.890537846574	215
4	1282	126.223544038571	216
4	1282	126.223544038571	217
4	1282	126.223544038571	218
4	1282	126.223544038571	219
4	1302	127.370506545082	220
4	1302	127.370506545082	221
4	1302	127.370506545082	222
4	1302	127.370506545082	223
4	1322	130.519667297756	224
4	1322	130.519667297756	225
4	1322	130.519667297756	226
4	1322	130.519667297756	227
4	1342	132.380665888941	228
4	1342	132.380665888941	229
4	1342	132.380665888941	230
4	1342	132.380665888941	231
4	1365	133.516372128653	232
4	1365	133.516372128653	233
4	1365	133.516372128653	234
4	1365	133.516372128653	235
4	1392	135.112612144018	236
4	1392	135.112612144018	237
4	1392	135.112612144018	238
4	1392	135.112612144018	239
4	1416	136.265939809382	240
4	1416	136.265939809382	241
4	1416	136.265939809382	242
4	1416	136.265939809382	243
4	1433	138.077446747474	244
4	1433	138.077446747474	245
4	1433	138.077446747474	246
4	1433	138.077446747474	247
4	1456	140.724825989423	248
4	1456	140.724825989423	249
4	1456	140.724825989423	250
4	1456	140.724825989423	251
4	1479	142.627345033231	252
4	1479	142.627345033231	253
4	1479	142.627345033231	254
4	1479	142.627345033231	255
4	1504	144.019609626002	256
4	1504	144.019609626002	257
4	1504	144.019609626002	258
4	1504	144.019609626002	259
4	1528	145.128161424182	260
4	1528	145.128161424182	261
4	1528	145.128161424182	262
4	1528	145.128161424182	263
4	1552	147.822585417444	264
4	1552	147.822585417444	265
4	1552	147.822585417444	266
4	1552	147.822585417444	267
4	1574	149.11163244235	268
4	1574	149.11163244235	269
4	1574	149.11163244235	270
4	1574	149.11163244235	271
4	1596	151.020606600982	272
4	1596	151.020606600982	273
4	1596	151.020606600982	274
4	1596	151.020606600982	275
4	1616	152.19044600589	276
4	1616	152.19044600589	277
4	1616	152.19044600589	278
4	1616	152.19044600589	279
4	1644	154.610484707471	280
4	1644	154.610484707471	281
4	1644	154.610484707471	282
4	1644	154.610484707471	283
4	1666	157.25101980879	284
4	1666	157.25101980879	285
4	1666	157.25101980879	286
4	1666	157.25101980879	287
4	1689	158.492237989749	288
4	1689	158.492237989749	289
4	1689	158.492237989749	290
4	1689	158.492237989749	291
4	1714	161.622336524111	292
4	1714	161.622336524111	293
4	1714	161.622336524111	294
4	1714	161.622336524111	295
4	1736	163.40882458697	296
4	1736	163.40882458697	297
4	1736	163.40882458697	298
4	1736	163.40882458697	299
4	1760	165.116448972244	300
4	1760	165.116448972244	301
4	1760	165.116448972244	302
4	1760	165.116448972244	303
4	1782	166.644618856396	304
4	1782	166.644618856396	305
4	1782	166.644618856396	306
4	1782	166.644618856396	307
4	1813	171.789384268509	308
4	1813	171.789384268509	309
4	1813	171.789384268509	310
4	1813	171.789384268509	311
4	1835	173.302151299937	312
4	1835	173.302151299937	313
4	1835	173.302151299937	314
4	1835	173.302151299937	315
4	1852	174.924192343253	316
4	1852	174.924192343253	317
4	1852	174.924192343253	318
4	1852	174.924192343253	319
4	1879	176.750953340281	320
4	1879	176.750953340281	321
4	1879	176.750953340281	322
4	1879	176.750953340281	323
4	1905	178.032441656543	324
4	1905	178.032441656543	325
4	1905	178.032441656543	326
4	1905	178.032441656543	327
4	1926	184.720254643109	328
4	1926	184.720254643109	329
4	1926	184.720254643109	330
4	1926	184.720254643109	331
4	1964	189.93709181055	332
4	1964	189.93709181055	333
4	1964	189.93709181055	334
4	1964	189.93709181055	335
4	1992	191.560283967819	336
4	1992	191.560283967819	337
4	1992	191.560283967819	338
4	1992	191.560283967819	339
4	2007	193.249698477576	340
4	2007	193.249698477576	341
4	2007	193.249698477576	342
4	2007	193.249698477576	343
4	2034	194.967199003215	344
4	2034	194.967199003215	345
4	2034	194.967199003215	346
4	2034	194.967199003215	347
4	2053	198.614281040582	348
4	2053	198.614281040582	349
4	2053	198.614281040582	350
4	2053	198.614281040582	351
4	2071	199.600758703304	352
4	2071	199.600758703304	353
4	2071	199.600758703304	354
4	2071	199.600758703304	355
4	2095	201.374041595988	356
4	2095	201.374041595988	357
4	2095	201.374041595988	358
4	2095	201.374041595988	359
4	2118	203.06439441397	360
4	2118	203.06439441397	361
4	2118	203.06439441397	362
4	2118	203.06439441397	363
4	2144	206.816593199331	364
4	2144	206.816593199331	365
4	2144	206.816593199331	366
4	2144	206.816593199331	367
4	2164	207.908106751394	368
4	2164	207.908106751394	369
4	2164	207.908106751394	370
4	2164	207.908106751394	371
4	2191	213.125899754379	372
4	2191	213.125899754379	373
4	2191	213.125899754379	374
4	2191	213.125899754379	375
4	2216	214.764248019463	376
4	2216	214.764248019463	377
4	2216	214.764248019463	378
4	2216	214.764248019463	379
4	2237	216.407036776704	380
4	2237	216.407036776704	381
4	2237	216.407036776704	382
4	2237	216.407036776704	383
4	2260	217.828685912423	384
4	2260	217.828685912423	385
4	2260	217.828685912423	386
4	2260	217.828685912423	387
4	2283	219.064448152693	388
4	2283	219.064448152693	389
4	2283	219.064448152693	390
4	2283	219.064448152693	391
4	2307	220.495837891841	392
4	2307	220.495837891841	393
4	2307	220.495837891841	394
4	2307	220.495837891841	395
4	2332	221.732127618429	396
4	2332	221.732127618429	397
4	2332	221.732127618429	398
4	2332	221.732127618429	399
4	2352	223.504282054065	400
4	2352	223.504282054065	401
4	2352	223.504282054065	402
4	2352	223.504282054065	403
4	2380	227.187152024562	404
4	2380	227.187152024562	405
4	2380	227.187152024562	406
4	2380	227.187152024562	407
4	2402	229.026441417234	408
4	2402	229.026441417234	409
4	2402	229.026441417234	410
4	2402	229.026441417234	411
4	2428	232.056719910063	412
4	2428	232.056719910063	413
4	2428	232.056719910063	414
4	2428	232.056719910063	415
4	2454	233.263968424286	416
4	2454	233.263968424286	417
4	2454	233.263968424286	418
4	2454	233.263968424286	419
4	2470	234.26879766969	420
4	2470	234.26879766969	421
4	2470	234.26879766969	422
4	2470	234.26879766969	423
4	2499	237.383856453971	424
4	2499	237.383856453971	425
4	2499	237.383856453971	426
4	2499	237.383856453971	427
4	2518	239.195970089453	428
4	2518	239.195970089453	429
4	2518	239.195970089453	430
4	2518	239.195970089453	431
5	20	0.240512463835	0
5	20	0.240512463835	1
5	20	0.240512463835	2
5	43	2.191100901636	3
5	43	2.191100901636	4
5	43	2.191100901636	5
5	66	6.889607333838	6
5	66	6.889607333838	7
5	66	6.889607333838	8
5	90	7.954930388056	9
5	90	7.954930388056	10
5	90	7.954930388056	11
5	109	9.58414835313	12
5	109	9.58414835313	13
5	109	9.58414835313	14
5	136	10.852261049973	15
5	136	10.852261049973	16
5	136	10.852261049973	17
5	166	14.599110754278	18
5	166	14.599110754278	19
5	166	14.599110754278	20
5	189	16.18375867677	21
5	189	16.18375867677	22
5	189	16.18375867677	23
5	205	17.947060011769	24
5	205	17.947060011769	25
5	205	17.947060011769	26
5	224	19.255029281409	27
5	224	19.255029281409	28
5	224	19.255029281409	29
5	259	24.323427600594	30
5	259	24.323427600594	31
5	259	24.323427600594	32
5	278	25.787108677419	33
5	278	25.787108677419	34
5	278	25.787108677419	35
5	305	27.347559582872	36
5	305	27.347559582872	37
5	305	27.347559582872	38
5	328	29.22291718654	39
5	328	29.22291718654	40
5	328	29.22291718654	41
5	353	32.425970985598	42
5	353	32.425970985598	43
5	353	32.425970985598	44
5	373	34.213862428286	45
5	373	34.213862428286	46
5	373	34.213862428286	47
5	422	38.391660460066	48
5	422	38.391660460066	49
5	422	38.391660460066	50
5	449	45.636213896036	51
5	449	45.636213896036	52
5	449	45.636213896036	53
5	476	47.216827830927	54
5	476	47.216827830927	55
5	476	47.216827830927	56
5	499	48.359086070289	57
5	499	48.359086070289	58
5	499	48.359086070289	59
5	522	49.725496163219	60
5	522	49.725496163219	61
5	522	49.725496163219	62
5	543	51.268986783809	63
5	543	51.268986783809	64
5	543	51.268986783809	65
5	579	55.207716741443	66
5	579	55.207716741443	67
5	579	55.207716741443	68
5	608	56.611290803091	69
5	608	56.611290803091	70
5	608	56.611290803091	71
5	626	57.690439772747	72
5	626	57.690439772747	73
5	626	57.690439772747	74
5	647	59.059825910409	75
5	647	59.059825910409	76
5	647	59.059825910409	77
5	671	60.454335616526	78
5	671	60.454335616526	79
5	671	60.454335616526	80
5	701	64.830056314271	81
5	701	64.830056314271	82
5	701	64.830056314271	83
5	718	66.945386247564	84
5	718	66.945386247564	85
5	718	66.945386247564	86
5	746	70.65821678119	87
5	746	70.65821678119	88
5	746	70.65821678119	89
5	795	75.550602386011	90
5	795	75.550602386011	91
5	795	75.550602386011	92
5	834	78.841504628844	93
5	834	78.841504628844	94
5	834	78.841504628844	95
5	878	84.5421559413	96
5	878	84.5421559413	97
5	878	84.5421559413	98
5	902	86.498611725295	99
5	902	86.498611725295	100
5	902	86.498611725295	101
5	929	87.754543468661	102
5	929	87.754543468661	103
5	929	87.754543468661	104
5	952	89.020292121953	105
5	952	89.020292121953	106
5	952	89.020292121953	107
5	991	96.099427988102	108
5	991	96.099427988102	109
5	991	96.099427988102	110
5	1014	98.04736287567	111
5	1014	98.04736287567	112
5	1014	98.04736287567	113
5	1034	99.809099848745	114
5	1034	99.809099848745	115
5	1034	99.809099848745	116
5	1074	103.807534738767	117
5	1074	103.807534738767	118
5	1074	103.807534738767	119
5	1096	106.404896856947	120
5	1096	106.404896856947	121
5	1096	106.404896856947	122
5	1118	107.448407129155	123
5	1118	107.448407129155	124
5	1118	107.448407129155	125
5	1143	111.797023239812	126
5	1143	111.797023239812	127
5	1143	111.797023239812	128
5	1167	113.713343700089	129
5	1167	113.713343700089	130
5	1167	113.713343700089	131
5	1216	121.370781806167	132
5	1216	121.370781806167	133
5	1216	121.370781806167	134
5	1233	122.826619872751	135
5	1233	122.826619872751	136
5	1233	122.826619872751	137
5	1259	123.90416572885	138
5	1259	123.90416572885	139
5	1259	123.90416572885	140
5	1299	127.368906830453	141
5	1299	127.368906830453	142
5	1299	127.368906830453	143
5	1327	130.531593271333	144
5	1327	130.531593271333	145
5	1327	130.531593271333	146
5	1354	132.410850728743	147
5	1354	132.410850728743	148
5	1354	132.410850728743	149
5	1371	133.529592295556	150
5	1371	133.529592295556	151
5	1371	133.529592295556	152
5	1397	135.124570655425	153
5	1397	135.124570655425	154
5	1397	135.124570655425	155
5	1412	136.243367697499	156
5	1412	136.243367697499	157
5	1412	136.243367697499	158
5	1437	138.080818239609	159
5	1437	138.080818239609	160
5	1437	138.080818239609	161
5	1464	140.760557822465	162
5	1464	140.760557822465	163
5	1464	140.760557822465	164
5	1491	142.692640707978	165
5	1491	142.692640707978	166
5	1491	142.692640707978	167
5	1514	144.040283675567	168
5	1514	144.040283675567	169
5	1514	144.040283675567	170
5	1534	145.175566595926	171
5	1534	145.175566595926	172
5	1534	145.175566595926	173
5	1562	147.833240173196	174
5	1562	147.833240173196	175
5	1562	147.833240173196	176
5	1585	149.136249958728	177
5	1585	149.136249958728	178
5	1585	149.136249958728	179
5	1601	151.047554111303	180
5	1601	151.047554111303	181
5	1601	151.047554111303	182
5	1625	152.207075459146	183
5	1625	152.207075459146	184
5	1625	152.207075459146	185
5	1645	154.614559981469	186
5	1645	154.614559981469	187
5	1645	154.614559981469	188
5	1677	157.300866183393	189
5	1677	157.300866183393	190
5	1677	157.300866183393	191
5	1700	158.527969140193	192
5	1700	158.527969140193	193
5	1700	158.527969140193	194
5	1719	161.628463939073	195
5	1719	161.628463939073	196
5	1719	161.628463939073	197
5	1743	163.431338675315	198
5	1743	163.431338675315	199
5	1743	163.431338675315	200
5	1771	165.136728302882	201
5	1771	165.136728302882	202
5	1771	165.136728302882	203
5	1812	171.781981049483	204
5	1812	171.781981049483	205
5	1812	171.781981049483	206
5	1840	173.3207146366	207
5	1840	173.3207146366	208
5	1840	173.3207146366	209
5	1861	174.934775655732	210
5	1861	174.934775655732	211
5	1861	174.934775655732	212
5	1878	176.745796514423	213
5	1878	176.745796514423	214
5	1878	176.745796514423	215
5	1904	178.030355167695	216
5	1904	178.030355167695	217
5	1904	178.030355167695	218
5	1936	184.7396791284	219
5	1936	184.7396791284	220
5	1936	184.7396791284	221
5	1969	189.950356193324	222
5	1969	189.950356193324	223
5	1969	189.950356193324	224
5	1991	191.557224489038	225
5	1991	191.557224489038	226
5	1991	191.557224489038	227
5	2013	193.278329888591	228
5	2013	193.278329888591	229
5	2013	193.278329888591	230
5	2039	194.988553991475	231
5	2039	194.988553991475	232
5	2039	194.988553991475	233
5	2083	199.628906906706	234
5	2083	199.628906906706	235
5	2083	199.628906906706	236
5	2106	201.400140570058	237
5	2106	201.400140570058	238
5	2106	201.400140570058	239
5	2125	203.075852755246	240
5	2125	203.075852755246	241
5	2125	203.075852755246	242
5	2153	206.850416694441	243
5	2153	206.850416694441	244
5	2153	206.850416694441	245
5	2171	207.918751225503	246
5	2171	207.918751225503	247
5	2171	207.918751225503	248
5	2197	213.136779537923	249
5	2197	213.136779537923	250
5	2197	213.136779537923	251
5	2226	214.796579920307	252
5	2226	214.796579920307	253
5	2226	214.796579920307	254
5	2243	216.417237212257	255
5	2243	216.417237212257	256
5	2243	216.417237212257	257
5	2272	217.86983952393	258
5	2272	217.86983952393	259
5	2272	217.86983952393	260
5	2289	219.078328290339	261
5	2289	219.078328290339	262
5	2289	219.078328290339	263
5	2315	220.518853940902	264
5	2315	220.518853940902	265
5	2315	220.518853940902	266
5	2341	221.750987292921	267
5	2341	221.750987292921	268
5	2341	221.750987292921	269
5	2358	223.516922755346	270
5	2358	223.516922755346	271
5	2358	223.516922755346	272
5	2387	227.2026511049	273
5	2387	227.2026511049	274
5	2387	227.2026511049	275
5	2411	229.075208202549	276
5	2411	229.075208202549	277
5	2411	229.075208202549	278
5	2436	232.078188642516	279
5	2436	232.078188642516	280
5	2436	232.078188642516	281
5	2455	233.269151930541	282
5	2455	233.269151930541	283
5	2455	233.269151930541	284
5	2475	234.282705816948	285
5	2475	234.282705816948	286
5	2475	234.282705816948	287
5	2507	237.402440749416	288
5	2507	237.402440749416	289
5	2507	237.402440749416	290
5	2530	239.241527901125	291
5	2530	239.241527901125	292
5	2530	239.241527901125	293
6	23	0.250512463835	0
6	46	2.201100901636	1
6	96	7.964930388056	2
6	113	9.59414835313	3
6	142	10.862261049973	4
6	172	14.609110754278	5
6	192	16.19375867677	6
6	228	19.265029281409	7
6	262	24.333427600594	8
6	285	25.797108677419	9
6	331	29.23291718654	10
6	376	34.223862428286	11
6	425	38.401660460066	12
6	453	45.646213896036	13
6	525	49.735496163219	14
6	548	51.278986783809	15
6	588	55.217716741443	16
6	611	56.621290803091	17
6	630	57.700439772747	18
6	651	59.069825910409	19
6	677	60.464335616526	20
6	704	64.840056314271	21
6	722	66.955386247564	22
6	754	70.66821678119	23
6	798	75.560602386011	24
6	881	84.5521559413	25
6	905	86.508611725295	26
6	932	87.764543468661	27
6	955	89.030292121953	28
6	995	96.109427988102	29
6	1017	98.05736287567	30
6	1037	99.819099848745	31
6	1077	103.817534738767	32
6	1102	106.414896856947	33
6	1175	113.723343700089	34
6	1242	122.836619872751	35
6	1263	123.91416572885	36
6	1305	127.378906830453	37
6	1357	132.420850728743	38
6	1377	133.539592295556	39
6	1415	136.253367697499	40
6	1446	138.090818239609	41
6	1467	140.770557822465	42
6	1494	142.702640707978	43
6	1540	145.185566595926	44
6	1588	149.146249958728	45
6	1605	151.057554111303	46
6	1630	152.217075459146	47
6	1652	154.624559981469	48
6	1680	157.310866183393	49
6	1703	158.537969140193	50
6	1751	163.441338675315	51
6	1774	165.146728302882	52
6	1816	171.791981049483	53
6	1866	174.944775655732	54
6	1882	176.755796514423	55
6	2019	193.288329888591	56
6	2042	194.998553991475	57
6	2086	199.638906906706	58
6	2129	203.085852755246	59
6	2156	206.860416694441	60
6	2179	207.928751225503	61
6	2203	213.146779537923	62
6	2229	214.806579920307	63
6	2249	216.427237212257	64
6	2275	217.87983952393	65
6	2294	219.088328290339	66
6	2321	220.528853940902	67
6	2344	221.760987292921	68
6	2364	223.526922755346	69
6	2391	227.2126511049	70
6	2414	229.085208202549	71
6	2439	232.088188642516	72
6	2510	237.412440749416	73
6	2533	239.251527901125	74

