version 2
run General-2-20230921-21:40:26-6208
attr configname General
attr datetime 20230921-21:40:26
attr experiment General
attr inifile omnetpp.ini
attr iterationvars ""
attr iterationvarsf ""
attr measurement ""
attr network Network2
attr processid 6208
attr repetition 2
attr replication #2
attr resultdir results
attr runnumber 2
attr seedset 2
param Network2.node[*].transmissionTime "uniform(1s, 2s)"
param Network2.node[*].delayTime "uniform(0.01s, 0.2s)"
param Network2.node[*].processingTime exponential(0.01s)
param Network2.node[*].lossProbability 0.3

vector 0 Network2.node[0] txVector ETV
vector 1 Network2.node[1] txVector ETV
vector 2 Network2.node[3] txVector ETV
vector 3 Network2.node[2] txVector ETV
vector 4 Network2.node[4] txVector ETV
vector 5 Network2.node[6] txVector ETV
vector 6 Network2.node[5] rxVector ETV
0	1	0.092839031499	0
0	3	1.277921112972	1
0	26	3.20946197656	2
0	49	4.723040094385	3
0	72	6.217329862313	4
0	95	8.01096731496	5
0	118	9.478809806536	6
0	141	11.449390121288	7
0	164	13.333861720533	8
0	187	14.996063742571	9
0	189	16.799515871814	10
0	212	18.028901835921	11
0	214	19.249739752867	12
0	237	21.168198393675	13
0	257	22.704652091738	14
0	259	23.879768480797	15
0	261	25.394627647957	16
0	263	27.274617999111	17
0	265	29.059409922006	18
0	267	30.589231097855	19
0	290	31.863068967376	20
0	313	33.516089476895	21
0	336	34.874329784669	22
0	356	36.299697080178	23
0	379	37.802475827763	24
0	402	39.629929178178	25
0	425	41.136016006365	26
0	448	42.554923318576	27
0	450	43.598052355478	28
0	473	44.705239755584	29
0	496	45.853916081617	30
0	519	47.644159880018	31
0	542	49.068569244834	32
0	565	50.627520037832	33
0	588	51.668765988916	34
0	590	53.158067282772	35
0	613	54.418787300604	36
0	615	55.7494442044	37
0	617	56.893864668225	38
0	640	58.730608197645	39
0	663	59.774097897595	40
0	665	61.584871101443	41
0	685	63.354705291352	42
0	687	65.169671557395	43
0	710	66.998226721322	44
0	730	68.952515356958	45
0	732	70.728313274	46
0	755	71.761167207517	47
0	778	73.66822663999	48
0	798	75.471402509388	49
0	821	76.812612465134	50
0	823	78.811929380771	51
0	846	80.520834925834	52
0	848	82.479348992247	53
0	871	84.05605865388	54
0	894	85.219481356459	55
0	913	86.695470100984	56
0	936	87.852055148704	57
0	959	88.917765824839	58
0	982	89.930736519878	59
0	984	91.019786717619	60
0	986	92.93328221074	61
0	1005	94.382907213659	62
0	1028	96.305969943308	63
0	1047	97.378295268879	64
0	1070	98.506724051215	65
0	1072	99.981029171512	66
0	1074	101.271487441628	67
0	1076	102.580884726035	68
0	1078	103.823843817941	69
0	1097	105.777535361952	70
0	1120	107.096248407165	71
0	1122	108.277369855453	72
0	1145	110.152791194866	73
0	1168	111.564609283131	74
0	1170	113.553836917054	75
0	1193	115.519951094888	76
0	1213	117.18610215887	77
0	1236	118.663886241164	78
0	1238	119.880695732325	79
0	1261	121.428291632343	80
0	1263	122.674469057485	81
0	1270	123.78440125614	82
0	1293	125.425578565584	83
0	1300	126.685776232989	84
0	1302	128.127791571678	85
0	1321	129.802639173824	86
0	1323	131.770785020912	87
0	1346	133.188477435164	88
0	1369	134.722492020126	89
0	1392	136.580945397043	90
0	1412	137.762896979009	91
0	1431	139.666042430573	92
0	1438	140.764419033439	93
0	1461	142.576673118644	94
0	1463	144.269145075245	95
0	1486	145.704200385384	96
0	1488	147.656026333816	97
0	1511	148.909277269629	98
0	1534	150.153777903191	99
0	1557	152.136042570475	100
0	1580	153.795790757065	101
0	1600	155.140354755813	102
0	1602	156.812977151492	103
0	1625	158.227720235487	104
0	1648	159.517368089886	105
0	1650	161.236359718036	106
0	1652	162.89379769239	107
0	1675	164.480382175198	108
0	1698	166.267480547786	109
0	1721	167.353746983469	110
0	1740	168.550534619032	111
0	1742	169.687605316066	112
0	1765	171.028978403671	113
0	1784	172.514914287966	114
0	1786	173.840182403581	115
0	1788	174.848116344087	116
0	1790	176.398999208598	117
0	1792	177.412001167903	118
0	1815	178.712564601576	119
0	1838	180.444051448269	120
0	1857	182.337644944912	121
0	1880	183.954180250889	122
0	1903	185.274056186214	123
0	1926	186.288297418518	124
0	1928	187.666634099804	125
0	1951	189.067882876856	126
0	1974	190.139739213058	127
0	1997	191.568843063911	128
0	2017	192.873796773389	129
0	2040	194.214353537666	130
0	2063	195.828692761962	131
0	2065	197.195801510955	132
0	2067	199.175380464424	133
0	2087	200.751979568055	134
0	2089	202.219775734017	135
0	2112	204.077078672139	136
0	2114	205.530335276634	137
0	2116	207.24587485149	138
0	2139	209.215738848564	139
0	2141	210.874945187024	140
0	2164	212.221686145771	141
0	2166	213.396249866128	142
0	2168	214.739419069855	143
0	2170	216.033922752846	144
0	2190	217.970203613877	145
0	2213	219.159250393059	146
0	2236	221.142706718776	147
0	2259	222.663337781807	148
0	2261	224.094044386657	149
0	2280	225.683357970804	150
0	2303	226.829489047421	151
0	2326	228.412455152036	152
0	2349	229.93578032522	153
0	2372	231.289659106885	154
0	2374	232.740028981832	155
0	2397	234.277552193278	156
0	2420	236.273212987013	157
0	2443	237.827085900368	158
0	2445	238.861654756838	159
1	5	1.317434556699	0
1	5	1.317434556699	1
1	5	1.317434556699	2
1	5	1.317434556699	3
1	28	3.22150077773	4
1	28	3.22150077773	5
1	28	3.22150077773	6
1	28	3.22150077773	7
1	51	4.741381791554	8
1	51	4.741381791554	9
1	51	4.741381791554	10
1	51	4.741381791554	11
1	74	6.236004967583	12
1	74	6.236004967583	13
1	74	6.236004967583	14
1	74	6.236004967583	15
1	97	8.024171754298	16
1	97	8.024171754298	17
1	97	8.024171754298	18
1	97	8.024171754298	19
1	120	9.504917111539	20
1	120	9.504917111539	21
1	120	9.504917111539	22
1	120	9.504917111539	23
1	143	11.467456278192	24
1	143	11.467456278192	25
1	143	11.467456278192	26
1	143	11.467456278192	27
1	166	13.348764166394	28
1	166	13.348764166394	29
1	166	13.348764166394	30
1	166	13.348764166394	31
1	191	16.830652229827	32
1	191	16.830652229827	33
1	191	16.830652229827	34
1	191	16.830652229827	35
1	216	19.268706706992	36
1	216	19.268706706992	37
1	216	19.268706706992	38
1	216	19.268706706992	39
1	239	21.182074428243	40
1	239	21.182074428243	41
1	239	21.182074428243	42
1	239	21.182074428243	43
1	269	30.599498482392	44
1	269	30.599498482392	45
1	269	30.599498482392	46
1	269	30.599498482392	47
1	292	31.889107776899	48
1	292	31.889107776899	49
1	292	31.889107776899	50
1	292	31.889107776899	51
1	315	33.52628115349	52
1	315	33.52628115349	53
1	315	33.52628115349	54
1	315	33.52628115349	55
1	338	34.89020998832	56
1	338	34.89020998832	57
1	338	34.89020998832	58
1	338	34.89020998832	59
1	358	36.341104105169	60
1	358	36.341104105169	61
1	358	36.341104105169	62
1	358	36.341104105169	63
1	381	37.820234548459	64
1	381	37.820234548459	65
1	381	37.820234548459	66
1	381	37.820234548459	67
1	404	39.642398685019	68
1	404	39.642398685019	69
1	404	39.642398685019	70
1	404	39.642398685019	71
1	427	41.146726662121	72
1	427	41.146726662121	73
1	427	41.146726662121	74
1	427	41.146726662121	75
1	452	43.613763131586	76
1	452	43.613763131586	77
1	452	43.613763131586	78
1	452	43.613763131586	79
1	475	44.715373009826	80
1	475	44.715373009826	81
1	475	44.715373009826	82
1	475	44.715373009826	83
1	498	45.878285023643	84
1	498	45.878285023643	85
1	498	45.878285023643	86
1	498	45.878285023643	87
1	521	47.666816050914	88
1	521	47.666816050914	89
1	521	47.666816050914	90
1	521	47.666816050914	91
1	544	49.080567791257	92
1	544	49.080567791257	93
1	544	49.080567791257	94
1	544	49.080567791257	95
1	567	50.640803789108	96
1	567	50.640803789108	97
1	567	50.640803789108	98
1	567	50.640803789108	99
1	592	53.173219601362	100
1	592	53.173219601362	101
1	592	53.173219601362	102
1	592	53.173219601362	103
1	619	56.909192256298	104
1	619	56.909192256298	105
1	619	56.909192256298	106
1	619	56.909192256298	107
1	642	58.743452416586	108
1	642	58.743452416586	109
1	642	58.743452416586	110
1	642	58.743452416586	111
1	667	61.610753506871	112
1	667	61.610753506871	113
1	667	61.610753506871	114
1	667	61.610753506871	115
1	689	65.190238081787	116
1	689	65.190238081787	117
1	689	65.190238081787	118
1	689	65.190238081787	119
1	712	67.008251576409	120
1	712	67.008251576409	121
1	712	67.008251576409	122
1	712	67.008251576409	123
1	734	70.753721625326	124
1	734	70.753721625326	125
1	734	70.753721625326	126
1	734	70.753721625326	127
1	757	71.779839201154	128
1	757	71.779839201154	129
1	757	71.779839201154	130
1	757	71.779839201154	131
1	780	73.681802133049	132
1	780	73.681802133049	133
1	780	73.681802133049	134
1	780	73.681802133049	135
1	800	75.483890991093	136
1	800	75.483890991093	137
1	800	75.483890991093	138
1	800	75.483890991093	139
1	825	78.829636291979	140
1	825	78.829636291979	141
1	825	78.829636291979	142
1	825	78.829636291979	143
1	850	82.489630356679	144
1	850	82.489630356679	145
1	850	82.489630356679	146
1	850	82.489630356679	147
1	873	84.109028797807	148
1	873	84.109028797807	149
1	873	84.109028797807	150
1	873	84.109028797807	151
1	896	85.23360201927	152
1	896	85.23360201927	153
1	896	85.23360201927	154
1	896	85.23360201927	155
1	915	86.733631296031	156
1	915	86.733631296031	157
1	915	86.733631296031	158
1	915	86.733631296031	159
1	938	87.86587190244	160
1	938	87.86587190244	161
1	938	87.86587190244	162
1	938	87.86587190244	163
1	961	88.929100991974	164
1	961	88.929100991974	165
1	961	88.929100991974	166
1	961	88.929100991974	167
1	988	92.955209938933	168
1	988	92.955209938933	169
1	988	92.955209938933	170
1	988	92.955209938933	171
1	1007	94.418577531381	172
1	1007	94.418577531381	173
1	1007	94.418577531381	174
1	1007	94.418577531381	175
1	1030	96.334684966611	176
1	1030	96.334684966611	177
1	1030	96.334684966611	178
1	1030	96.334684966611	179
1	1049	97.397228944118	180
1	1049	97.397228944118	181
1	1049	97.397228944118	182
1	1049	97.397228944118	183
1	1080	103.83890900588	184
1	1080	103.83890900588	185
1	1080	103.83890900588	186
1	1080	103.83890900588	187
1	1099	105.791598471332	188
1	1099	105.791598471332	189
1	1099	105.791598471332	190
1	1099	105.791598471332	191
1	1124	108.290987962248	192
1	1124	108.290987962248	193
1	1124	108.290987962248	194
1	1124	108.290987962248	195
1	1147	110.165232583353	196
1	1147	110.165232583353	197
1	1147	110.165232583353	198
1	1147	110.165232583353	199
1	1172	113.589261183276	200
1	1172	113.589261183276	201
1	1172	113.589261183276	202
1	1172	113.589261183276	203
1	1195	115.537235689587	204
1	1195	115.537235689587	205
1	1195	115.537235689587	206
1	1195	115.537235689587	207
1	1215	117.202500180766	208
1	1215	117.202500180766	209
1	1215	117.202500180766	210
1	1215	117.202500180766	211
1	1240	119.898241786149	212
1	1240	119.898241786149	213
1	1240	119.898241786149	214
1	1240	119.898241786149	215
1	1265	122.690756646524	216
1	1265	122.690756646524	217
1	1265	122.690756646524	218
1	1265	122.690756646524	219
1	1272	123.802041560074	220
1	1272	123.802041560074	221
1	1272	123.802041560074	222
1	1272	123.802041560074	223
1	1295	125.452151376277	224
1	1295	125.452151376277	225
1	1295	125.452151376277	226
1	1295	125.452151376277	227
1	1304	128.143637074031	228
1	1304	128.143637074031	229
1	1304	128.143637074031	230
1	1304	128.143637074031	231
1	1325	131.791133982467	232
1	1325	131.791133982467	233
1	1325	131.791133982467	234
1	1325	131.791133982467	235
1	1348	133.201847030702	236
1	1348	133.201847030702	237
1	1348	133.201847030702	238
1	1348	133.201847030702	239
1	1371	134.745171754424	240
1	1371	134.745171754424	241
1	1371	134.745171754424	242
1	1371	134.745171754424	243
1	1394	136.600217572561	244
1	1394	136.600217572561	245
1	1394	136.600217572561	246
1	1394	136.600217572561	247
1	1414	137.773012654352	248
1	1414	137.773012654352	249
1	1414	137.773012654352	250
1	1414	137.773012654352	251
1	1433	139.678823284913	252
1	1433	139.678823284913	253
1	1433	139.678823284913	254
1	1433	139.678823284913	255
1	1440	140.774901798047	256
1	1440	140.774901798047	257
1	1440	140.774901798047	258
1	1440	140.774901798047	259
1	1465	144.287667544579	260
1	1465	144.287667544579	261
1	1465	144.287667544579	262
1	1465	144.287667544579	263
1	1490	147.672347845668	264
1	1490	147.672347845668	265
1	1490	147.672347845668	266
1	1490	147.672347845668	267
1	1513	148.930597942324	268
1	1513	148.930597942324	269
1	1513	148.930597942324	270
1	1513	148.930597942324	271
1	1536	150.167860835609	272
1	1536	150.167860835609	273
1	1536	150.167860835609	274
1	1536	150.167860835609	275
1	1559	152.14874836333	276
1	1559	152.14874836333	277
1	1559	152.14874836333	278
1	1559	152.14874836333	279
1	1582	153.817896614617	280
1	1582	153.817896614617	281
1	1582	153.817896614617	282
1	1582	153.817896614617	283
1	1604	156.826249701074	284
1	1604	156.826249701074	285
1	1604	156.826249701074	286
1	1604	156.826249701074	287
1	1627	158.242839062989	288
1	1627	158.242839062989	289
1	1627	158.242839062989	290
1	1627	158.242839062989	291
1	1654	162.920245374467	292
1	1654	162.920245374467	293
1	1654	162.920245374467	294
1	1654	162.920245374467	295
1	1677	164.496452601986	296
1	1677	164.496452601986	297
1	1677	164.496452601986	298
1	1677	164.496452601986	299
1	1700	166.285366990077	300
1	1700	166.285366990077	301
1	1700	166.285366990077	302
1	1700	166.285366990077	303
1	1723	167.370721681733	304
1	1723	167.370721681733	305
1	1723	167.370721681733	306
1	1723	167.370721681733	307
1	1744	169.699206876229	308
1	1744	169.699206876229	309
1	1744	169.699206876229	310
1	1744	169.699206876229	311
1	1767	171.042553022862	312
1	1767	171.042553022862	313
1	1767	171.042553022862	314
1	1767	171.042553022862	315
1	1794	177.446061319648	316
1	1794	177.446061319648	317
1	1794	177.446061319648	318
1	1794	177.446061319648	319
1	1817	178.733277287595	320
1	1817	178.733277287595	321
1	1817	178.733277287595	322
1	1817	178.733277287595	323
1	1840	180.466358360192	324
1	1840	180.466358360192	325
1	1840	180.466358360192	326
1	1840	180.466358360192	327
1	1859	182.355972406942	328
1	1859	182.355972406942	329
1	1859	182.355972406942	330
1	1859	182.355972406942	331
1	1882	183.97034683541	332
1	1882	183.97034683541	333
1	1882	183.97034683541	334
1	1882	183.97034683541	335
1	1905	185.29014876495	336
1	1905	185.29014876495	337
1	1905	185.29014876495	338
1	1905	185.29014876495	339
1	1930	187.686427665234	340
1	1930	187.686427665234	341
1	1930	187.686427665234	342
1	1930	187.686427665234	343
1	1953	189.082518897766	344
1	1953	189.082518897766	345
1	1953	189.082518897766	346
1	1953	189.082518897766	347
1	1976	190.157422566634	348
1	1976	190.157422566634	349
1	1976	190.157422566634	350
1	1976	190.157422566634	351
1	1999	191.594159330892	352
1	1999	191.594159330892	353
1	1999	191.594159330892	354
1	1999	191.594159330892	355
1	2019	192.895676895328	356
1	2019	192.895676895328	357
1	2019	192.895676895328	358
1	2019	192.895676895328	359
1	2042	194.229150126379	360
1	2042	194.229150126379	361
1	2042	194.229150126379	362
1	2042	194.229150126379	363
1	2069	199.229794543163	364
1	2069	199.229794543163	365
1	2069	199.229794543163	366
1	2069	199.229794543163	367
1	2091	202.231865486084	368
1	2091	202.231865486084	369
1	2091	202.231865486084	370
1	2091	202.231865486084	371
1	2118	207.25608826818	372
1	2118	207.25608826818	373
1	2118	207.25608826818	374
1	2118	207.25608826818	375
1	2143	210.896790018882	376
1	2143	210.896790018882	377
1	2143	210.896790018882	378
1	2143	210.896790018882	379
1	2172	216.043998587402	380
1	2172	216.043998587402	381
1	2172	216.043998587402	382
1	2172	216.043998587402	383
1	2192	217.982469620179	384
1	2192	217.982469620179	385
1	2192	217.982469620179	386
1	2192	217.982469620179	387
1	2215	219.17412395354	388
1	2215	219.17412395354	389
1	2215	219.17412395354	390
1	2215	219.17412395354	391
1	2238	221.179751879029	392
1	2238	221.179751879029	393
1	2238	221.179751879029	394
1	2238	221.179751879029	395
1	2263	224.110491003998	396
1	2263	224.110491003998	397
1	2263	224.110491003998	398
1	2263	224.110491003998	399
1	2282	225.698853017041	400
1	2282	225.698853017041	401
1	2282	225.698853017041	402
1	2282	225.698853017041	403
1	2305	226.842820357424	404
1	2305	226.842820357424	405
1	2305	226.842820357424	406
1	2305	226.842820357424	407
1	2328	228.42298163571	408
1	2328	228.42298163571	409
1	2328	228.42298163571	410
1	2328	228.42298163571	411
1	2351	229.964274042416	412
1	2351	229.964274042416	413
1	2351	229.964274042416	414
1	2351	229.964274042416	415
1	2376	232.787653494183	416
1	2376	232.787653494183	417
1	2376	232.787653494183	418
1	2376	232.787653494183	419
1	2399	234.292929957662	420
1	2399	234.292929957662	421
1	2399	234.292929957662	422
1	2399	234.292929957662	423
1	2422	236.28761461361	424
1	2422	236.28761461361	425
1	2422	236.28761461361	426
1	2422	236.28761461361	427
2	10	1.331444330932	0
2	10	1.331444330932	1
2	10	1.331444330932	2
2	35	3.239401926024	3
2	35	3.239401926024	4
2	35	3.239401926024	5
2	64	4.785935253439	6
2	64	4.785935253439	7
2	64	4.785935253439	8
2	88	6.300434548139	9
2	88	6.300434548139	10
2	88	6.300434548139	11
2	102	8.035028367231	12
2	102	8.035028367231	13
2	102	8.035028367231	14
2	125	9.52147604468	15
2	125	9.52147604468	16
2	125	9.52147604468	17
2	155	11.495295197188	18
2	155	11.495295197188	19
2	155	11.495295197188	20
2	174	13.376272338343	21
2	174	13.376272338343	22
2	174	13.376272338343	23
2	196	16.842521275841	24
2	196	16.842521275841	25
2	196	16.842521275841	26
2	228	19.306169393872	27
2	228	19.306169393872	28
2	228	19.306169393872	29
2	250	21.21730105868	30
2	250	21.21730105868	31
2	250	21.21730105868	32
2	286	30.668023325288	33
2	286	30.668023325288	34
2	286	30.668023325288	35
2	297	31.901715893965	36
2	297	31.901715893965	37
2	297	31.901715893965	38
2	332	33.569893600079	39
2	332	33.569893600079	40
2	332	33.569893600079	41
2	343	34.904120925094	42
2	343	34.904120925094	43
2	343	34.904120925094	44
2	363	36.362409462071	45
2	363	36.362409462071	46
2	363	36.362409462071	47
2	386	37.83356495224	48
2	386	37.83356495224	49
2	386	37.83356495224	50
2	409	39.65780872009	51
2	409	39.65780872009	52
2	409	39.65780872009	53
2	432	41.159292323256	54
2	432	41.159292323256	55
2	432	41.159292323256	56
2	458	43.645017740228	57
2	458	43.645017740228	58
2	458	43.645017740228	59
2	480	44.725794458486	60
2	480	44.725794458486	61
2	480	44.725794458486	62
2	511	45.914505674171	63
2	511	45.914505674171	64
2	511	45.914505674171	65
2	526	47.677889061685	66
2	526	47.677889061685	67
2	526	47.677889061685	68
2	549	49.091628906537	69
2	549	49.091628906537	70
2	549	49.091628906537	71
2	584	50.684293092713	72
2	584	50.684293092713	73
2	584	50.684293092713	74
2	605	53.20613899761	75
2	605	53.20613899761	76
2	605	53.20613899761	77
2	636	57.029090974465	78
2	636	57.029090974465	79
2	636	57.029090974465	80
2	647	58.757410610797	81
2	647	58.757410610797	82
2	647	58.757410610797	83
2	672	61.630020474682	84
2	672	61.630020474682	85
2	672	61.630020474682	86
2	703	65.221465660889	87
2	703	65.221465660889	88
2	703	65.221465660889	89
2	722	67.041504444748	90
2	722	67.041504444748	91
2	722	67.041504444748	92
2	740	70.766357082412	93
2	740	70.766357082412	94
2	740	70.766357082412	95
2	762	71.792327531952	96
2	762	71.792327531952	97
2	762	71.792327531952	98
2	786	73.709780816888	99
2	786	73.709780816888	100
2	786	73.709780816888	101
2	806	75.500018822676	102
2	806	75.500018822676	103
2	806	75.500018822676	104
2	830	78.840564567038	105
2	830	78.840564567038	106
2	830	78.840564567038	107
2	856	82.5164865625	108
2	856	82.5164865625	109
2	856	82.5164865625	110
2	878	84.11948679728	111
2	878	84.11948679728	112
2	878	84.11948679728	113
2	909	85.262342595854	114
2	909	85.262342595854	115
2	909	85.262342595854	116
2	920	86.749661027328	117
2	920	86.749661027328	118
2	920	86.749661027328	119
2	945	87.879517653906	120
2	945	87.879517653906	121
2	945	87.879517653906	122
2	966	88.951711660927	123
2	966	88.951711660927	124
2	966	88.951711660927	125
2	999	92.985478183069	126
2	999	92.985478183069	127
2	999	92.985478183069	128
2	1012	94.433927535493	129
2	1012	94.433927535493	130
2	1012	94.433927535493	131
2	1054	97.415814911627	132
2	1054	97.415814911627	133
2	1054	97.415814911627	134
2	1104	105.830363279279	135
2	1104	105.830363279279	136
2	1104	105.830363279279	137
2	1129	108.302614656371	138
2	1129	108.302614656371	139
2	1129	108.302614656371	140
2	1159	110.189623691704	141
2	1159	110.189623691704	142
2	1159	110.189623691704	143
2	1178	113.604492622172	144
2	1178	113.604492622172	145
2	1178	113.604492622172	146
2	1201	115.551002545102	147
2	1201	115.551002545102	148
2	1201	115.551002545102	149
2	1229	117.235396802148	150
2	1229	117.235396802148	151
2	1229	117.235396802148	152
2	1253	119.930234160693	153
2	1253	119.930234160693	154
2	1253	119.930234160693	155
2	1278	123.815253755091	156
2	1278	123.815253755091	157
2	1278	123.815253755091	158
2	1314	128.166308517117	159
2	1314	128.166308517117	160
2	1314	128.166308517117	161
2	1331	131.80766678074	162
2	1331	131.80766678074	163
2	1331	131.80766678074	164
2	1353	133.212464444755	165
2	1353	133.212464444755	166
2	1353	133.212464444755	167
2	1376	134.758578200626	168
2	1376	134.758578200626	169
2	1376	134.758578200626	170
2	1399	136.611221496948	171
2	1399	136.611221496948	172
2	1399	136.611221496948	173
2	1423	137.80617139512	174
2	1423	137.80617139512	175
2	1423	137.80617139512	176
2	1445	140.786048829431	177
2	1445	140.786048829431	178
2	1445	140.786048829431	179
2	1479	144.317703058247	180
2	1479	144.317703058247	181
2	1479	144.317703058247	182
2	1496	147.694487311736	183
2	1496	147.694487311736	184
2	1496	147.694487311736	185
2	1530	148.972706653428	186
2	1530	148.972706653428	187
2	1530	148.972706653428	188
2	1543	150.184046556747	189
2	1543	150.184046556747	190
2	1543	150.184046556747	191
2	1565	152.170283737536	192
2	1565	152.170283737536	193
2	1565	152.170283737536	194
2	1588	153.836797776389	195
2	1588	153.836797776389	196
2	1588	153.836797776389	197
2	1610	156.84791454483	198
2	1610	156.84791454483	199
2	1610	156.84791454483	200
2	1644	158.298811478175	201
2	1644	158.298811478175	202
2	1644	158.298811478175	203
2	1667	162.988090526907	204
2	1667	162.988090526907	205
2	1667	162.988090526907	206
2	1682	164.508714389055	207
2	1682	164.508714389055	208
2	1682	164.508714389055	209
2	1713	166.310184009912	210
2	1713	166.310184009912	211
2	1713	166.310184009912	212
2	1728	167.383705233531	213
2	1728	167.383705233531	214
2	1728	167.383705233531	215
2	1749	169.714322705401	216
2	1749	169.714322705401	217
2	1749	169.714322705401	218
2	1800	177.466232433546	219
2	1800	177.466232433546	220
2	1800	177.466232433546	221
2	1831	178.7588849105	222
2	1831	178.7588849105	223
2	1831	178.7588849105	224
2	1865	182.373711838095	225
2	1865	182.373711838095	226
2	1865	182.373711838095	227
2	1892	184.003976943728	228
2	1892	184.003976943728	229
2	1892	184.003976943728	230
2	1916	185.358883119697	231
2	1916	185.358883119697	232
2	1916	185.358883119697	233
2	1935	187.700938898245	234
2	1935	187.700938898245	235
2	1935	187.700938898245	236
2	1966	189.116652755054	237
2	1966	189.116652755054	238
2	1966	189.116652755054	239
2	1981	190.172329138521	240
2	1981	190.172329138521	241
2	1981	190.172329138521	242
2	2004	191.613316970992	243
2	2004	191.613316970992	244
2	2004	191.613316970992	245
2	2036	192.987239226956	246
2	2036	192.987239226956	247
2	2036	192.987239226956	248
2	2048	194.250589841203	249
2	2048	194.250589841203	250
2	2048	194.250589841203	251
2	2074	199.243750091366	252
2	2074	199.243750091366	253
2	2074	199.243750091366	254
2	2101	202.261270125715	255
2	2101	202.261270125715	256
2	2101	202.261270125715	257
2	2124	207.269797301666	258
2	2124	207.269797301666	259
2	2124	207.269797301666	260
2	2149	210.91286281023	261
2	2149	210.91286281023	262
2	2149	210.91286281023	263
2	2182	216.080517792129	264
2	2182	216.080517792129	265
2	2182	216.080517792129	266
2	2204	218.023471849549	267
2	2204	218.023471849549	268
2	2204	218.023471849549	269
2	2228	219.252261396505	270
2	2228	219.252261396505	271
2	2228	219.252261396505	272
2	2246	221.215943381167	273
2	2246	221.215943381167	274
2	2246	221.215943381167	275
2	2269	224.124985977347	276
2	2269	224.124985977347	277
2	2269	224.124985977347	278
2	2299	225.790237656521	279
2	2299	225.790237656521	280
2	2299	225.790237656521	281
2	2319	226.876331279638	282
2	2319	226.876331279638	283
2	2319	226.876331279638	284
2	2333	228.445856832332	285
2	2333	228.445856832332	286
2	2333	228.445856832332	287
2	2356	229.9773024013	288
2	2356	229.9773024013	289
2	2356	229.9773024013	290
2	2393	232.868194505956	291
2	2393	232.868194505956	292
2	2393	232.868194505956	293
2	2410	234.318639823318	294
2	2410	234.318639823318	295
2	2410	234.318639823318	296
2	2428	236.310023154771	297
2	2428	236.310023154771	298
2	2428	236.310023154771	299
3	11	1.332888171871	0
3	11	1.332888171871	1
3	11	1.332888171871	2
3	11	1.332888171871	3
3	33	3.23449155303	4
3	33	3.23449155303	5
3	33	3.23449155303	6
3	33	3.23449155303	7
3	59	4.765707436621	8
3	59	4.765707436621	9
3	59	4.765707436621	10
3	59	4.765707436621	11
3	82	6.282061043494	12
3	82	6.282061043494	13
3	82	6.282061043494	14
3	82	6.282061043494	15
3	104	8.042028944848	16
3	104	8.042028944848	17
3	104	8.042028944848	18
3	104	8.042028944848	19
3	126	9.527177319113	20
3	126	9.527177319113	21
3	126	9.527177319113	22
3	126	9.527177319113	23
3	148	11.482348385438	24
3	148	11.482348385438	25
3	148	11.482348385438	26
3	148	11.482348385438	27
3	175	13.383353698737	28
3	175	13.383353698737	29
3	175	13.383353698737	30
3	175	13.383353698737	31
3	197	16.851483989998	32
3	197	16.851483989998	33
3	197	16.851483989998	34
3	197	16.851483989998	35
3	221	19.286793173401	36
3	221	19.286793173401	37
3	221	19.286793173401	38
3	221	19.286793173401	39
3	244	21.204098189793	40
3	244	21.204098189793	41
3	244	21.204098189793	42
3	244	21.204098189793	43
3	277	30.628149084759	44
3	277	30.628149084759	45
3	277	30.628149084759	46
3	277	30.628149084759	47
3	304	31.925721161263	48
3	304	31.925721161263	49
3	304	31.925721161263	50
3	304	31.925721161263	51
3	320	33.538487958289	52
3	320	33.538487958289	53
3	320	33.538487958289	54
3	320	33.538487958289	55
3	347	34.914241584247	56
3	347	34.914241584247	57
3	347	34.914241584247	58
3	347	34.914241584247	59
3	364	36.36249929973	60
3	364	36.36249929973	61
3	364	36.36249929973	62
3	364	36.36249929973	63
3	387	37.841080689318	64
3	387	37.841080689318	65
3	387	37.841080689318	66
3	387	37.841080689318	67
3	416	39.673451228541	68
3	416	39.673451228541	69
3	416	39.673451228541	70
3	416	39.673451228541	71
3	441	41.181401762773	72
3	441	41.181401762773	73
3	441	41.181401762773	74
3	441	41.181401762773	75
3	468	43.690146992296	76
3	468	43.690146992296	77
3	468	43.690146992296	78
3	468	43.690146992296	79
3	487	44.751011450324	80
3	487	44.751011450324	81
3	487	44.751011450324	82
3	487	44.751011450324	83
3	506	45.902573173335	84
3	506	45.902573173335	85
3	506	45.902573173335	86
3	506	45.902573173335	87
3	533	47.689394379537	88
3	533	47.689394379537	89
3	533	47.689394379537	90
3	533	47.689394379537	91
3	557	49.108583820064	92
3	557	49.108583820064	93
3	557	49.108583820064	94
3	557	49.108583820064	95
3	572	50.66104640897	96
3	572	50.66104640897	97
3	572	50.66104640897	98
3	572	50.66104640897	99
3	597	53.184762719303	100
3	597	53.184762719303	101
3	597	53.184762719303	102
3	597	53.184762719303	103
3	627	56.986975448563	104
3	627	56.986975448563	105
3	627	56.986975448563	106
3	627	56.986975448563	107
3	648	58.76063728798	108
3	648	58.76063728798	109
3	648	58.76063728798	110
3	648	58.76063728798	111
3	680	61.665409137512	112
3	680	61.665409137512	113
3	680	61.665409137512	114
3	680	61.665409137512	115
3	694	65.203970908485	116
3	694	65.203970908485	117
3	694	65.203970908485	118
3	694	65.203970908485	119
3	717	67.025981254555	120
3	717	67.025981254555	121
3	717	67.025981254555	122
3	717	67.025981254555	123
3	750	70.790913215469	124
3	750	70.790913215469	125
3	750	70.790913215469	126
3	750	70.790913215469	127
3	763	71.793793185137	128
3	763	71.793793185137	129
3	763	71.793793185137	130
3	763	71.793793185137	131
3	785	73.706408036356	132
3	785	73.706408036356	133
3	785	73.706408036356	134
3	785	73.706408036356	135
3	805	75.497044369508	136
3	805	75.497044369508	137
3	805	75.497044369508	138
3	805	75.497044369508	139
3	837	78.874591926912	140
3	837	78.874591926912	141
3	837	78.874591926912	142
3	837	78.874591926912	143
3	855	82.510639298619	144
3	855	82.510639298619	145
3	855	82.510639298619	146
3	855	82.510639298619	147
3	879	84.126614584551	148
3	879	84.126614584551	149
3	879	84.126614584551	150
3	879	84.126614584551	151
3	901	85.244903538012	152
3	901	85.244903538012	153
3	901	85.244903538012	154
3	901	85.244903538012	155
3	925	86.77183188223	156
3	925	86.77183188223	157
3	925	86.77183188223	158
3	925	86.77183188223	159
3	943	87.876932026219	160
3	943	87.876932026219	161
3	943	87.876932026219	162
3	943	87.876932026219	163
3	971	88.963144654741	164
3	971	88.963144654741	165
3	971	88.963144654741	166
3	971	88.963144654741	167
3	993	92.971431932268	168
3	993	92.971431932268	169
3	993	92.971431932268	170
3	993	92.971431932268	171
3	1019	94.467013506137	172
3	1019	94.467013506137	173
3	1019	94.467013506137	174
3	1019	94.467013506137	175
3	1036	96.357356369835	176
3	1036	96.357356369835	177
3	1036	96.357356369835	178
3	1036	96.357356369835	179
3	1062	97.443012283064	180
3	1062	97.443012283064	181
3	1062	97.443012283064	182
3	1062	97.443012283064	183
3	1088	103.878149751415	184
3	1088	103.878149751415	185
3	1088	103.878149751415	186
3	1088	103.878149751415	187
3	1112	105.870304122897	188
3	1112	105.870304122897	189
3	1112	105.870304122897	190
3	1112	105.870304122897	191
3	1133	108.315247474656	192
3	1133	108.315247474656	193
3	1133	108.315247474656	194
3	1133	108.315247474656	195
3	1152	110.177954265821	196
3	1152	110.177954265821	197
3	1152	110.177954265821	198
3	1152	110.177954265821	199
3	1177	113.602175530517	200
3	1177	113.602175530517	201
3	1177	113.602175530517	202
3	1177	113.602175530517	203
3	1200	115.54942368479	204
3	1200	115.54942368479	205
3	1200	115.54942368479	206
3	1200	115.54942368479	207
3	1220	117.216416293894	208
3	1220	117.216416293894	209
3	1220	117.216416293894	210
3	1220	117.216416293894	211
3	1246	119.918024544137	212
3	1246	119.918024544137	213
3	1246	119.918024544137	214
3	1246	119.918024544137	215
3	1277	123.813928515487	216
3	1277	123.813928515487	217
3	1277	123.813928515487	218
3	1277	123.813928515487	219
3	1309	128.156210847736	220
3	1309	128.156210847736	221
3	1309	128.156210847736	222
3	1309	128.156210847736	223
3	1330	131.80427577904	224
3	1330	131.80427577904	225
3	1330	131.80427577904	226
3	1330	131.80427577904	227
3	1360	133.234756571108	228
3	1360	133.234756571108	229
3	1360	133.234756571108	230
3	1360	133.234756571108	231
3	1377	134.760069396151	232
3	1377	134.760069396151	233
3	1377	134.760069396151	234
3	1377	134.760069396151	235
3	1403	136.623541910267	236
3	1403	136.623541910267	237
3	1403	136.623541910267	238
3	1403	136.623541910267	239
3	1422	137.804081156805	240
3	1422	137.804081156805	241
3	1422	137.804081156805	242
3	1422	137.804081156805	243
3	1447	140.794563266592	244
3	1447	140.794563266592	245
3	1447	140.794563266592	246
3	1447	140.794563266592	247
3	1471	144.301380717106	248
3	1471	144.301380717106	249
3	1471	144.301380717106	250
3	1471	144.301380717106	251
3	1499	147.698003188271	252
3	1499	147.698003188271	253
3	1499	147.698003188271	254
3	1499	147.698003188271	255
3	1518	148.945071855349	256
3	1518	148.945071855349	257
3	1518	148.945071855349	258
3	1518	148.945071855349	259
3	1541	150.181285819574	260
3	1541	150.181285819574	261
3	1541	150.181285819574	262
3	1541	150.181285819574	263
3	1568	152.179266541746	264
3	1568	152.179266541746	265
3	1568	152.179266541746	266
3	1568	152.179266541746	267
3	1587	153.830014206112	268
3	1587	153.830014206112	269
3	1587	153.830014206112	270
3	1587	153.830014206112	271
3	1609	156.84381774411	272
3	1609	156.84381774411	273
3	1609	156.84381774411	274
3	1609	156.84381774411	275
3	1635	158.272521644711	276
3	1635	158.272521644711	277
3	1635	158.272521644711	278
3	1635	158.272521644711	279
3	1662	162.975141857968	280
3	1662	162.975141857968	281
3	1662	162.975141857968	282
3	1662	162.975141857968	283
3	1683	164.510631567373	284
3	1683	164.510631567373	285
3	1683	164.510631567373	286
3	1683	164.510631567373	287
3	1705	166.296525068052	288
3	1705	166.296525068052	289
3	1705	166.296525068052	290
3	1705	166.296525068052	291
3	1735	167.411467212501	292
3	1735	167.411467212501	293
3	1735	167.411467212501	294
3	1735	167.411467212501	295
3	1760	169.748442727246	296
3	1760	169.748442727246	297
3	1760	169.748442727246	298
3	1760	169.748442727246	299
3	1772	171.053242137273	300
3	1772	171.053242137273	301
3	1772	171.053242137273	302
3	1772	171.053242137273	303
3	1806	177.476773874372	304
3	1806	177.476773874372	305
3	1806	177.476773874372	306
3	1806	177.476773874372	307
3	1822	178.745032190707	308
3	1822	178.745032190707	309
3	1822	178.745032190707	310
3	1822	178.745032190707	311
3	1848	180.513548575701	312
3	1848	180.513548575701	313
3	1848	180.513548575701	314
3	1848	180.513548575701	315
3	1868	182.38220636867	316
3	1868	182.38220636867	317
3	1868	182.38220636867	318
3	1868	182.38220636867	319
3	1887	183.98390296967	320
3	1887	183.98390296967	321
3	1887	183.98390296967	322
3	1887	183.98390296967	323
3	1910	185.343183598252	324
3	1910	185.343183598252	325
3	1910	185.343183598252	326
3	1910	185.343183598252	327
3	1939	187.712394343531	328
3	1939	187.712394343531	329
3	1939	187.712394343531	330
3	1939	187.712394343531	331
3	1959	189.099962257987	332
3	1959	189.099962257987	333
3	1959	189.099962257987	334
3	1959	189.099962257987	335
3	1982	190.174135060244	336
3	1982	190.174135060244	337
3	1982	190.174135060244	338
3	1982	190.174135060244	339
3	2009	191.637209185199	340
3	2009	191.637209185199	341
3	2009	191.637209185199	342
3	2009	191.637209185199	343
3	2027	192.952130288375	344
3	2027	192.952130288375	345
3	2027	192.952130288375	346
3	2027	192.952130288375	347
3	2047	194.24162397482	348
3	2047	194.24162397482	349
3	2047	194.24162397482	350
3	2047	194.24162397482	351
3	2078	199.258383216397	352
3	2078	199.258383216397	353
3	2078	199.258383216397	354
3	2078	199.258383216397	355
3	2096	202.243983324967	356
3	2096	202.243983324967	357
3	2096	202.243983324967	358
3	2096	202.243983324967	359
3	2123	207.268310269783	360
3	2123	207.268310269783	361
3	2123	207.268310269783	362
3	2123	207.268310269783	363
3	2152	210.919970038085	364
3	2152	210.919970038085	365
3	2152	210.919970038085	366
3	2152	210.919970038085	367
3	2177	216.066887748088	368
3	2177	216.066887748088	369
3	2177	216.066887748088	370
3	2177	216.066887748088	371
3	2197	218.001321708946	372
3	2197	218.001321708946	373
3	2197	218.001321708946	374
3	2197	218.001321708946	375
3	2223	219.226621339989	376
3	2223	219.226621339989	377
3	2223	219.226621339989	378
3	2223	219.226621339989	379
3	2250	221.243732774454	380
3	2250	221.243732774454	381
3	2250	221.243732774454	382
3	2250	221.243732774454	383
3	2268	224.123747024602	384
3	2268	224.123747024602	385
3	2268	224.123747024602	386
3	2268	224.123747024602	387
3	2287	225.714804642193	388
3	2287	225.714804642193	389
3	2287	225.714804642193	390
3	2287	225.714804642193	391
3	2310	226.856077801777	392
3	2310	226.856077801777	393
3	2310	226.856077801777	394
3	2310	226.856077801777	395
3	2334	228.448909128531	396
3	2334	228.448909128531	397
3	2334	228.448909128531	398
3	2334	228.448909128531	399
3	2357	229.983177768064	400
3	2357	229.983177768064	401
3	2357	229.983177768064	402
3	2357	229.983177768064	403
3	2381	232.809267075238	404
3	2381	232.809267075238	405
3	2381	232.809267075238	406
3	2381	232.809267075238	407
3	2404	234.305299678673	408
3	2404	234.305299678673	409
3	2404	234.305299678673	410
3	2404	234.305299678673	411
3	2427	236.302464786783	412
3	2427	236.302464786783	413
3	2427	236.302464786783	414
3	2427	236.302464786783	415
4	15	1.342722102661	0
4	15	1.342722102661	1
4	15	1.342722102661	2
4	45	3.250637095335	3
4	45	3.250637095335	4
4	45	3.250637095335	5
4	68	4.802972011907	6
4	68	4.802972011907	7
4	68	4.802972011907	8
4	87	6.29624067721	9
4	87	6.29624067721	10
4	87	6.29624067721	11
4	110	8.05024175834	12
4	110	8.05024175834	13
4	110	8.05024175834	14
4	134	9.538900824031	15
4	134	9.538900824031	16
4	134	9.538900824031	17
4	154	11.492479413499	18
4	154	11.492479413499	19
4	154	11.492479413499	20
4	183	13.393780662351	21
4	183	13.393780662351	22
4	183	13.393780662351	23
4	201	16.853959450827	24
4	201	16.853959450827	25
4	201	16.853959450827	26
4	227	19.304562625424	27
4	227	19.304562625424	28
4	227	19.304562625424	29
4	249	21.215270082304	30
4	249	21.215270082304	31
4	249	21.215270082304	32
4	282	30.639912822751	33
4	282	30.639912822751	34
4	282	30.639912822751	35
4	309	31.936257518719	36
4	309	31.936257518719	37
4	309	31.936257518719	38
4	328	33.554175082175	39
4	328	33.554175082175	40
4	328	33.554175082175	41
4	352	34.924341803831	42
4	352	34.924341803831	43
4	352	34.924341803831	44
4	375	36.401726549088	45
4	375	36.401726549088	46
4	375	36.401726549088	47
4	395	37.853458439143	48
4	395	37.853458439143	49
4	395	37.853458439143	50
4	417	39.683070402015	51
4	417	39.683070402015	52
4	417	39.683070402015	53
4	436	41.170630135429	54
4	436	41.170630135429	55
4	436	41.170630135429	56
4	464	43.660046547228	57
4	464	43.660046547228	58
4	464	43.660046547228	59
4	492	44.77154092579	60
4	492	44.77154092579	61
4	492	44.77154092579	62
4	512	45.91609022863	63
4	512	45.91609022863	64
4	512	45.91609022863	65
4	538	47.709540248052	66
4	538	47.709540248052	67
4	538	47.709540248052	68
4	556	49.107990811099	69
4	556	49.107990811099	70
4	556	49.107990811099	71
4	578	50.671596148245	72
4	578	50.671596148245	73
4	578	50.671596148245	74
4	609	53.221522904825	75
4	609	53.221522904825	76
4	609	53.221522904825	77
4	632	57.003274105766	78
4	632	57.003274105766	79
4	632	57.003274105766	80
4	656	58.772508846558	81
4	656	58.772508846558	82
4	656	58.772508846558	83
4	676	61.644214685072	84
4	676	61.644214685072	85
4	676	61.644214685072	86
4	702	65.221376846849	87
4	702	65.221376846849	88
4	702	65.221376846849	89
4	723	67.043014480764	90
4	723	67.043014480764	91
4	723	67.043014480764	92
4	746	70.779153495992	93
4	746	70.779153495992	94
4	746	70.779153495992	95
4	772	71.815328899813	96
4	772	71.815328899813	97
4	772	71.815328899813	98
4	794	73.719970180007	99
4	794	73.719970180007	100
4	794	73.719970180007	101
4	817	75.530415064953	102
4	817	75.530415064953	103
4	817	75.530415064953	104
4	842	78.888214177248	105
4	842	78.888214177248	106
4	842	78.888214177248	107
4	864	82.52683097736	108
4	864	82.52683097736	109
4	864	82.52683097736	110
4	884	84.134081838439	111
4	884	84.134081838439	112
4	884	84.134081838439	113
4	928	86.780804418106	114
4	928	86.780804418106	115
4	928	86.780804418106	116
4	955	87.889722378818	117
4	955	87.889722378818	118
4	955	87.889722378818	119
4	970	88.962000889277	120
4	970	88.962000889277	121
4	970	88.962000889277	122
4	1024	94.48265260715	123
4	1024	94.48265260715	124
4	1024	94.48265260715	125
4	1043	96.370012501888	126
4	1043	96.370012501888	127
4	1043	96.370012501888	128
4	1058	97.425954925492	129
4	1058	97.425954925492	130
4	1058	97.425954925492	131
4	1093	103.90026181621	132
4	1093	103.90026181621	133
4	1093	103.90026181621	134
4	1108	105.858453499113	135
4	1108	105.858453499113	136
4	1108	105.858453499113	137
4	1134	108.317059755685	138
4	1134	108.317059755685	139
4	1134	108.317059755685	140
4	1158	110.189250360766	141
4	1158	110.189250360766	142
4	1158	110.189250360766	143
4	1189	113.61711671207	144
4	1189	113.61711671207	145
4	1189	113.61711671207	146
4	1209	115.593022177343	147
4	1209	115.593022177343	148
4	1209	115.593022177343	149
4	1226	117.232637832312	150
4	1226	117.232637832312	151
4	1226	117.232637832312	152
4	1257	119.972891704936	153
4	1257	119.972891704936	154
4	1257	119.972891704936	155
4	1286	123.837021872995	156
4	1286	123.837021872995	157
4	1286	123.837021872995	158
4	1342	131.818788126231	159
4	1342	131.818788126231	160
4	1342	131.818788126231	161
4	1365	133.289200055649	162
4	1365	133.289200055649	163
4	1365	133.289200055649	164
4	1388	134.786403239722	165
4	1388	134.786403239722	166
4	1388	134.786403239722	167
4	1404	136.627741707683	168
4	1404	136.627741707683	169
4	1404	136.627741707683	170
4	1451	140.79680720638	171
4	1451	140.79680720638	172
4	1451	140.79680720638	173
4	1478	144.316722257618	174
4	1478	144.316722257618	175
4	1478	144.316722257618	176
4	1507	147.717184495184	177
4	1507	147.717184495184	178
4	1507	147.717184495184	179
4	1526	148.956814770754	180
4	1526	148.956814770754	181
4	1526	148.956814770754	182
4	1553	150.198872254641	183
4	1553	150.198872254641	184
4	1553	150.198872254641	185
4	1572	152.183070065815	186
4	1572	152.183070065815	187
4	1572	152.183070065815	188
4	1596	153.853060915865	189
4	1596	153.853060915865	190
4	1596	153.853060915865	191
4	1618	156.866227546807	192
4	1618	156.866227546807	193
4	1618	156.866227546807	194
4	1640	158.283803567126	195
4	1640	158.283803567126	196
4	1640	158.283803567126	197
4	1671	163.000081599313	198
4	1671	163.000081599313	199
4	1671	163.000081599313	200
4	1694	164.528719565104	201
4	1694	164.528719565104	202
4	1694	164.528719565104	203
4	1717	166.320342480153	204
4	1717	166.320342480153	205
4	1717	166.320342480153	206
4	1754	169.725026695717	207
4	1754	169.725026695717	208
4	1754	169.725026695717	209
4	1780	171.067899774124	210
4	1780	171.067899774124	211
4	1780	171.067899774124	212
4	1811	177.499645369802	213
4	1811	177.499645369802	214
4	1811	177.499645369802	215
4	1830	178.755306066199	216
4	1830	178.755306066199	217
4	1830	178.755306066199	218
4	1853	180.528643211474	219
4	1853	180.528643211474	220
4	1853	180.528643211474	221
4	1872	182.385383764595	222
4	1872	182.385383764595	223
4	1872	182.385383764595	224
4	1899	184.033153497696	225
4	1899	184.033153497696	226
4	1899	184.033153497696	227
4	1915	185.354018239596	228
4	1915	185.354018239596	229
4	1915	185.354018239596	230
4	1944	187.723677771625	231
4	1944	187.723677771625	232
4	1944	187.723677771625	233
4	1970	189.128564799924	234
4	1970	189.128564799924	235
4	1970	189.128564799924	236
4	1993	190.223218584683	237
4	1993	190.223218584683	238
4	1993	190.223218584683	239
4	2008	191.630695099207	240
4	2008	191.630695099207	241
4	2008	191.630695099207	242
4	2032	192.9654520045	243
4	2032	192.9654520045	244
4	2032	192.9654520045	245
4	2059	194.282080408424	246
4	2059	194.282080408424	247
4	2059	194.282080408424	248
4	2083	199.270445435892	249
4	2083	199.270445435892	250
4	2083	199.270445435892	251
4	2108	202.292633097894	252
4	2108	202.292633097894	253
4	2108	202.292633097894	254
4	2129	207.278575240697	255
4	2129	207.278575240697	256
4	2129	207.278575240697	257
4	2160	210.942433712207	258
4	2160	210.942433712207	259
4	2160	210.942433712207	260
4	2186	216.102263732759	261
4	2186	216.102263732759	262
4	2186	216.102263732759	263
4	2203	218.018356605087	264
4	2203	218.018356605087	265
4	2203	218.018356605087	266
4	2232	219.270696042927	267
4	2232	219.270696042927	268
4	2232	219.270696042927	269
4	2255	221.254155567595	270
4	2255	221.254155567595	271
4	2255	221.254155567595	272
4	2292	225.727356409225	273
4	2292	225.727356409225	274
4	2292	225.727356409225	275
4	2318	226.869778814355	276
4	2318	226.869778814355	277
4	2318	226.869778814355	278
4	2339	228.457057965758	279
4	2339	228.457057965758	280
4	2339	228.457057965758	281
4	2362	229.992967582362	282
4	2362	229.992967582362	283
4	2362	229.992967582362	284
4	2389	232.852142982198	285
4	2389	232.852142982198	286
4	2389	232.852142982198	287
4	2409	234.317171091949	288
4	2409	234.317171091949	289
4	2409	234.317171091949	290
4	2437	236.326465655333	291
4	2437	236.326465655333	292
4	2437	236.326465655333	293
5	20	1.345991911527	0
5	20	1.345991911527	1
5	34	3.236731578982	2
5	34	3.236731578982	3
5	56	4.753870331639	4
5	56	4.753870331639	5
5	79	6.265129404407	6
5	79	6.265129404407	7
5	103	8.038734219567	8
5	103	8.038734219567	9
5	138	9.551529224375	10
5	138	9.551529224375	11
5	149	11.490802677826	12
5	149	11.490802677826	13
5	171	13.364070138401	14
5	171	13.364070138401	15
5	206	16.861993507599	16
5	206	16.861993507599	17
5	226	19.303230963362	18
5	226	19.303230963362	19
5	274	30.61106748111	20
5	274	30.61106748111	21
5	298	31.911302956977	22
5	298	31.911302956977	23
5	321	33.539433111011	24
5	321	33.539433111011	25
5	372	36.372804544678	26
5	372	36.372804544678	27
5	396	37.859526768996	28
5	396	37.859526768996	29
5	410	39.66068551619	30
5	410	39.66068551619	31
5	437	41.176461466951	32
5	437	41.176461466951	33
5	457	43.6364816354	34
5	457	43.6364816354	35
5	481	44.730917985688	36
5	481	44.730917985688	37
5	503	45.891228925283	38
5	503	45.891228925283	39
5	527	47.678747033992	40
5	527	47.678747033992	41
5	550	49.095116630552	42
5	550	49.095116630552	43
5	577	50.671276194781	44
5	577	50.671276194781	45
5	602	53.195058545329	46
5	602	53.195058545329	47
5	624	56.953339074763	48
5	624	56.953339074763	49
5	657	58.773499122824	50
5	657	58.773499122824	51
5	695	65.205121806435	52
5	695	65.205121806435	53
5	739	70.764776542485	54
5	739	70.764776542485	55
5	771	71.805562746234	56
5	771	71.805562746234	57
5	807	75.501963700666	58
5	807	75.501963700666	59
5	831	78.842816409741	60
5	831	78.842816409741	61
5	868	82.598151322572	62
5	868	82.598151322572	63
5	880	84.126933950017	64
5	880	84.126933950017	65
5	902	85.248266461727	66
5	902	85.248266461727	67
5	924	86.762948409447	68
5	924	86.762948409447	69
5	944	87.879288178532	70
5	944	87.879288178532	71
5	979	88.990842433361	72
5	979	88.990842433361	73
5	994	92.976105708902	74
5	994	92.976105708902	75
5	1013	94.443413806104	76
5	1013	94.443413806104	77
5	1035	96.348336606014	78
5	1035	96.348336606014	79
5	1067	97.453743264129	80
5	1067	97.453743264129	81
5	1085	103.851261134548	82
5	1085	103.851261134548	83
5	1117	105.883591813618	84
5	1117	105.883591813618	85
5	1142	108.331975898982	86
5	1142	108.331975898982	87
5	1153	110.18725854362	88
5	1153	110.18725854362	89
5	1179	113.606414724069	90
5	1179	113.606414724069	91
5	1221	117.223758676154	92
5	1221	117.223758676154	93
5	1245	119.909441468045	94
5	1245	119.909441468045	95
5	1290	123.854431610109	96
5	1290	123.854431610109	97
5	1315	128.169484438346	98
5	1315	128.169484438346	99
5	1332	131.808694188884	100
5	1332	131.808694188884	101
5	1354	133.218467200595	102
5	1354	133.218467200595	103
5	1378	134.762773260774	104
5	1378	134.762773260774	105
5	1419	137.793070399943	106
5	1419	137.793070399943	107
5	1446	140.792933626124	108
5	1446	140.792933626124	109
5	1470	144.299656818287	110
5	1470	144.299656818287	111
5	1495	147.684742592349	112
5	1495	147.684742592349	113
5	1519	148.945474870357	114
5	1519	148.945474870357	115
5	1542	150.18399967165	116
5	1542	150.18399967165	117
5	1564	152.169258944532	118
5	1564	152.169258944532	119
5	1619	156.872022173463	120
5	1619	156.872022173463	121
5	1632	158.254701594122	122
5	1632	158.254701594122	123
5	1659	162.9309738525	124
5	1659	162.9309738525	125
5	1684	164.514613911971	126
5	1684	164.514613911971	127
5	1706	166.296617338434	128
5	1706	166.296617338434	129
5	1732	167.398597601165	130
5	1732	167.398597601165	131
5	1750	169.71561974988	132
5	1750	169.71561974988	133
5	1773	171.05389473466	134
5	1773	171.05389473466	135
5	1799	177.462159309745	136
5	1799	177.462159309745	137
5	1823	178.74510699702	138
5	1823	178.74510699702	139
5	1845	180.501663509282	140
5	1845	180.501663509282	141
5	1864	182.370119012696	142
5	1864	182.370119012696	143
5	1893	184.012687538888	144
5	1893	184.012687538888	145
5	1923	185.42123767153	146
5	1923	185.42123767153	147
5	1945	187.724087133997	148
5	1945	187.724087133997	149
5	1958	189.094761163513	150
5	1958	189.094761163513	151
5	1990	190.208329219386	152
5	1990	190.208329219386	153
5	2024	192.911736128436	154
5	2024	192.911736128436	155
5	2049	194.25109019059	156
5	2049	194.25109019059	157
5	2102	202.261727774872	158
5	2102	202.261727774872	159
5	2136	207.293758927502	160
5	2136	207.293758927502	161
5	2148	210.908114436071	162
5	2148	210.908114436071	163
5	2202	218.01624273806	164
5	2202	218.01624273806	165
5	2220	219.185437546479	166
5	2220	219.185437546479	167
5	2243	221.190209539292	168
5	2243	221.190209539292	169
5	2270	224.127139746617	170
5	2270	224.127139746617	171
5	2296	225.761386537902	172
5	2296	225.761386537902	173
5	2311	226.856261710493	174
5	2311	226.856261710493	175
5	2335	228.450345299516	176
5	2335	228.450345299516	177
5	2358	229.984937186435	178
5	2358	229.984937186435	179
5	2386	232.83182457035	180
5	2386	232.83182457035	181
5	2411	234.319078928293	182
5	2411	234.319078928293	183
5	2436	236.320386788124	184
5	2436	236.320386788124	185
6	23	1.352722102661	0
6	71	4.812972011907	1
6	91	6.30624067721	2
6	117	8.06024175834	3
6	137	9.548900824031	4
6	160	11.502479413499	5
6	186	13.403780662351	6
6	233	19.314562625424	7
6	331	33.564175082175	8
6	399	37.863458439143	9
6	440	41.180630135429	10
6	467	43.670046547228	11
6	518	45.92609022863	12
6	560	49.117990811099	13
6	583	50.681596148245	14
6	612	53.231522904825	15
6	635	57.013274105766	16
6	679	61.654214685072	17
6	706	65.231376846849	18
6	777	71.825328899813	19
6	845	78.898214177248	20
6	867	82.53683097736	21
6	893	84.144081838439	22
6	958	87.899722378818	23
6	974	88.972000889277	24
6	1027	94.49265260715	25
6	1046	96.380012501888	26
6	1061	97.435954925492	27
6	1096	103.91026181621	28
6	1111	105.868453499113	29
6	1141	108.327059755685	30
6	1192	113.62711671207	31
6	1232	117.242637832312	32
6	1260	119.982891704936	33
6	1289	123.847021872995	34
6	1368	133.299200055649	35
6	1411	136.637741707683	36
6	1460	140.80680720638	37
6	1482	144.326722257618	38
6	1529	148.966814770754	39
6	1556	150.208872254641	40
6	1579	152.193070065815	41
6	1599	153.863060915865	42
6	1643	158.293803567126	43
6	1697	164.538719565104	44
6	1759	169.735026695717	45
6	1783	171.077899774124	46
6	1814	177.509645369802	47
6	1856	180.538643211474	48
6	1879	182.395383764595	49
6	1902	184.043153497696	50
6	1948	187.733677771625	51
6	1973	189.138564799924	52
6	1996	190.233218584683	53
6	2012	191.640695099207	54
6	2086	199.280445435892	55
6	2111	202.302633097894	56
6	2135	207.288575240697	57
6	2163	210.952433712207	58
6	2189	216.112263732759	59
6	2235	219.280696042927	60
6	2258	221.264155567595	61
6	2295	225.737356409225	62
6	2348	228.467057965758	63
6	2392	232.862142982198	64
6	2414	234.327171091949	65
6	2442	236.336465655333	66

