version 2
run General-0-20230921-21:40:26-6208
attr configname General
attr datetime 20230921-21:40:26
attr experiment General
attr inifile omnetpp.ini
attr iterationvars ""
attr iterationvarsf ""
attr measurement ""
attr network Network2
attr processid 6208
attr repetition 0
attr replication #0
attr resultdir results
attr runnumber 0
attr seedset 0
param Network2.node[*].transmissionTime "uniform(1s, 2s)"
param Network2.node[*].delayTime "uniform(0.01s, 0.2s)"
param Network2.node[*].processingTime exponential(0.01s)
param Network2.node[*].lossProbability 0.3

vector 0 Network2.node[0] txVector ETV
vector 1 Network2.node[1] txVector ETV
vector 2 Network2.node[3] txVector ETV
vector 3 Network2.node[2] txVector ETV
vector 4 Network2.node[6] txVector ETV
vector 5 Network2.node[4] txVector ETV
vector 6 Network2.node[5] rxVector ETV
0	1	0.114274565438	0
0	24	1.707119181827	1
0	47	3.275163745582	2
0	49	4.954043279244	3
0	72	6.674675930832	4
0	74	8.286771653295	5
0	97	9.903705651947	6
0	120	11.511536318651	7
0	135	12.670505905133	8
0	158	14.293351998395	9
0	181	15.412079712684	10
0	201	16.421436414431	11
0	203	17.991054818808	12
0	226	19.694792099605	13
0	249	20.992229051265	14
0	272	22.61103761227	15
0	274	24.185362868087	16
0	297	25.838563683519	17
0	316	27.30781285519	18
0	318	28.714996152867	19
0	341	29.784163143097	20
0	343	31.273712085171	21
0	345	32.612697201625	22
0	347	33.792187469623	23
0	370	34.963174062393	24
0	393	36.577140014929	25
0	395	38.257684709116	26
0	397	39.342980276172	27
0	420	40.399398610772	28
0	440	42.389737556766	29
0	442	44.018719405712	30
0	465	45.89137006326	31
0	467	47.363121639084	32
0	469	49.074705460653	33
0	492	50.228399764126	34
0	511	51.793821071818	35
0	526	53.543075488492	36
0	528	55.472604806612	37
0	551	57.142521348859	38
0	574	58.634789588705	39
0	593	60.113159895253	40
0	616	61.519280382742	41
0	618	63.244874750807	42
0	641	64.256302205923	43
0	643	65.512441788877	44
0	645	67.104376952706	45
0	668	68.580854156597	46
0	678	70.359549553443	47
0	701	71.632371450385	48
0	703	73.107660894824	49
0	726	74.891308862559	50
0	749	76.348220284406	51
0	751	78.115183790523	52
0	774	79.124950222514	53
0	776	80.284364686423	54
0	799	81.913263125886	55
0	819	83.758620810305	56
0	821	85.280991342926	57
0	841	86.794066209422	58
0	864	88.168389404501	59
0	887	89.414452587796	60
0	889	91.153135245975	61
0	908	92.602218672942	62
0	931	94.553171281313	63
0	954	96.057104890776	64
0	956	98.025070461753	65
0	979	100.019471249852	66
0	981	101.999044502463	67
0	999	103.147522586008	68
0	1022	104.856131427532	69
0	1045	106.204607416952	70
0	1068	107.839664212039	71
0	1091	109.049414163532	72
0	1114	110.716699003551	73
0	1137	112.127000563156	74
0	1144	113.414119819721	75
0	1167	114.588891827112	76
0	1186	115.950197503978	77
0	1209	117.479137432139	78
0	1232	118.788388720091	79
0	1255	120.379415617168	80
0	1278	121.651644981543	81
0	1301	123.397043053836	82
0	1311	125.016225850286	83
0	1334	126.287339243881	84
0	1357	127.632057366037	85
0	1380	129.465373176226	86
0	1403	131.332540333114	87
0	1405	132.639916452189	88
0	1407	134.1771954811	89
0	1409	135.451770531089	90
0	1411	136.460460449877	91
0	1413	137.485405179282	92
0	1415	138.629691277939	93
0	1417	140.143451012747	94
0	1440	141.366108945647	95
0	1463	143.117130593938	96
0	1486	144.371155822492	97
0	1509	145.549735789262	98
0	1532	147.271919808192	99
0	1551	149.263810137361	100
0	1570	150.746701760525	101
0	1593	151.90308510636	102
0	1595	153.834590144763	103
0	1597	155.508427490555	104
0	1620	156.732894427451	105
0	1630	158.090319074998	106
0	1649	159.302753435057	107
0	1672	160.651110184687	108
0	1674	162.565973276115	109
0	1694	163.61532222231	110
0	1717	165.025048426893	111
0	1740	166.152737071347	112
0	1763	168.051698165089	113
0	1786	169.572572959894	114
0	1788	171.14041896428	115
0	1790	172.761588215903	116
0	1813	174.259767780621	117
0	1836	176.196695660316	118
0	1859	177.954059800907	119
0	1878	179.192071075161	120
0	1901	181.005951213493	121
0	1924	182.324868534301	122
0	1943	183.436364592594	123
0	1966	185.406442692113	124
0	1989	186.965616473538	125
0	1991	188.196028179797	126
0	2014	189.314154883922	127
0	2016	190.344815932755	128
0	2018	191.569229550036	129
0	2020	193.522905251086	130
0	2043	195.10522498454	131
0	2062	196.945031510275	132
0	2064	198.0131246127	133
0	2087	199.956975465249	134
0	2089	201.257164924247	135
0	2112	202.52395308421	136
0	2135	203.834582302794	137
0	2145	205.485809866181	138
0	2147	206.671257837983	139
0	2166	208.567169028176	140
0	2189	210.534506825339	141
0	2208	211.852404690189	142
0	2231	213.83751336772	143
0	2254	214.893885530839	144
0	2256	216.4972085262	145
0	2279	217.625229398562	146
0	2281	218.694109858787	147
0	2304	220.637252298026	148
0	2323	221.867823583382	149
0	2346	222.986755853594	150
0	2369	224.574907309684	151
0	2392	226.424290271319	152
0	2415	228.092508498888	153
0	2417	229.86616754423	154
0	2436	231.513385515037	155
0	2438	233.286644647672	156
0	2461	234.854337392218	157
0	2463	236.62557857887	158
0	2465	237.90390738573	159
0	2488	239.043040674954	160
1	3	0.142870607559	0
1	3	0.142870607559	1
1	3	0.142870607559	2
1	3	0.142870607559	3
1	26	1.743101722685	4
1	26	1.743101722685	5
1	26	1.743101722685	6
1	26	1.743101722685	7
1	51	4.972766491194	8
1	51	4.972766491194	9
1	51	4.972766491194	10
1	51	4.972766491194	11
1	76	8.325550803508	12
1	76	8.325550803508	13
1	76	8.325550803508	14
1	76	8.325550803508	15
1	99	9.91763677752	16
1	99	9.91763677752	17
1	99	9.91763677752	18
1	99	9.91763677752	19
1	122	11.522705872749	20
1	122	11.522705872749	21
1	122	11.522705872749	22
1	122	11.522705872749	23
1	137	12.691704048791	24
1	137	12.691704048791	25
1	137	12.691704048791	26
1	137	12.691704048791	27
1	160	14.307179007884	28
1	160	14.307179007884	29
1	160	14.307179007884	30
1	160	14.307179007884	31
1	183	15.440552989194	32
1	183	15.440552989194	33
1	183	15.440552989194	34
1	183	15.440552989194	35
1	205	18.00445828619	36
1	205	18.00445828619	37
1	205	18.00445828619	38
1	205	18.00445828619	39
1	228	19.72160132165	40
1	228	19.72160132165	41
1	228	19.72160132165	42
1	228	19.72160132165	43
1	251	21.008670098348	44
1	251	21.008670098348	45
1	251	21.008670098348	46
1	251	21.008670098348	47
1	276	24.205921364174	48
1	276	24.205921364174	49
1	276	24.205921364174	50
1	276	24.205921364174	51
1	299	25.86696101137	52
1	299	25.86696101137	53
1	299	25.86696101137	54
1	299	25.86696101137	55
1	320	28.73695053853	56
1	320	28.73695053853	57
1	320	28.73695053853	58
1	320	28.73695053853	59
1	349	33.808413443063	60
1	349	33.808413443063	61
1	349	33.808413443063	62
1	349	33.808413443063	63
1	372	34.980844858939	64
1	372	34.980844858939	65
1	372	34.980844858939	66
1	372	34.980844858939	67
1	399	39.359671413409	68
1	399	39.359671413409	69
1	399	39.359671413409	70
1	399	39.359671413409	71
1	422	40.411843520992	72
1	422	40.411843520992	73
1	422	40.411843520992	74
1	422	40.411843520992	75
1	444	44.031915152261	76
1	444	44.031915152261	77
1	444	44.031915152261	78
1	444	44.031915152261	79
1	471	49.097815184335	80
1	471	49.097815184335	81
1	471	49.097815184335	82
1	471	49.097815184335	83
1	494	50.240424351763	84
1	494	50.240424351763	85
1	494	50.240424351763	86
1	494	50.240424351763	87
1	513	51.816977334401	88
1	513	51.816977334401	89
1	513	51.816977334401	90
1	513	51.816977334401	91
1	530	55.497983093757	92
1	530	55.497983093757	93
1	530	55.497983093757	94
1	530	55.497983093757	95
1	553	57.165093718815	96
1	553	57.165093718815	97
1	553	57.165093718815	98
1	553	57.165093718815	99
1	576	58.65166902349	100
1	576	58.65166902349	101
1	576	58.65166902349	102
1	576	58.65166902349	103
1	595	60.131581258281	104
1	595	60.131581258281	105
1	595	60.131581258281	106
1	595	60.131581258281	107
1	620	63.269596792387	108
1	620	63.269596792387	109
1	620	63.269596792387	110
1	620	63.269596792387	111
1	647	67.121069981426	112
1	647	67.121069981426	113
1	647	67.121069981426	114
1	647	67.121069981426	115
1	670	68.605878284534	116
1	670	68.605878284534	117
1	670	68.605878284534	118
1	670	68.605878284534	119
1	680	70.374183453718	120
1	680	70.374183453718	121
1	680	70.374183453718	122
1	680	70.374183453718	123
1	705	73.125789878436	124
1	705	73.125789878436	125
1	705	73.125789878436	126
1	705	73.125789878436	127
1	728	74.922683079463	128
1	728	74.922683079463	129
1	728	74.922683079463	130
1	728	74.922683079463	131
1	753	78.128869619919	132
1	753	78.128869619919	133
1	753	78.128869619919	134
1	753	78.128869619919	135
1	778	80.299446880964	136
1	778	80.299446880964	137
1	778	80.299446880964	138
1	778	80.299446880964	139
1	801	81.93094775166	140
1	801	81.93094775166	141
1	801	81.93094775166	142
1	801	81.93094775166	143
1	823	85.301484764585	144
1	823	85.301484764585	145
1	823	85.301484764585	146
1	823	85.301484764585	147
1	843	86.804533558439	148
1	843	86.804533558439	149
1	843	86.804533558439	150
1	843	86.804533558439	151
1	866	88.189351330111	152
1	866	88.189351330111	153
1	866	88.189351330111	154
1	866	88.189351330111	155
1	891	91.190826690803	156
1	891	91.190826690803	157
1	891	91.190826690803	158
1	891	91.190826690803	159
1	910	92.614876838432	160
1	910	92.614876838432	161
1	910	92.614876838432	162
1	910	92.614876838432	163
1	933	94.566684494128	164
1	933	94.566684494128	165
1	933	94.566684494128	166
1	933	94.566684494128	167
1	958	98.041082008217	168
1	958	98.041082008217	169
1	958	98.041082008217	170
1	958	98.041082008217	171
1	983	102.012038032492	172
1	983	102.012038032492	173
1	983	102.012038032492	174
1	983	102.012038032492	175
1	1001	103.16077675318	176
1	1001	103.16077675318	177
1	1001	103.16077675318	178
1	1001	103.16077675318	179
1	1024	104.879605915769	180
1	1024	104.879605915769	181
1	1024	104.879605915769	182
1	1024	104.879605915769	183
1	1047	106.218169074768	184
1	1047	106.218169074768	185
1	1047	106.218169074768	186
1	1047	106.218169074768	187
1	1070	107.850893837708	188
1	1070	107.850893837708	189
1	1070	107.850893837708	190
1	1070	107.850893837708	191
1	1093	109.065224250087	192
1	1093	109.065224250087	193
1	1093	109.065224250087	194
1	1093	109.065224250087	195
1	1116	110.736461923781	196
1	1116	110.736461923781	197
1	1116	110.736461923781	198
1	1116	110.736461923781	199
1	1139	112.137439835497	200
1	1139	112.137439835497	201
1	1139	112.137439835497	202
1	1139	112.137439835497	203
1	1146	113.429048607405	204
1	1146	113.429048607405	205
1	1146	113.429048607405	206
1	1146	113.429048607405	207
1	1169	114.623082341054	208
1	1169	114.623082341054	209
1	1169	114.623082341054	210
1	1169	114.623082341054	211
1	1188	115.963827975522	212
1	1188	115.963827975522	213
1	1188	115.963827975522	214
1	1188	115.963827975522	215
1	1211	117.494299466688	216
1	1211	117.494299466688	217
1	1211	117.494299466688	218
1	1211	117.494299466688	219
1	1234	118.809152624685	220
1	1234	118.809152624685	221
1	1234	118.809152624685	222
1	1234	118.809152624685	223
1	1257	120.390271825109	224
1	1257	120.390271825109	225
1	1257	120.390271825109	226
1	1257	120.390271825109	227
1	1280	121.680493627685	228
1	1280	121.680493627685	229
1	1280	121.680493627685	230
1	1280	121.680493627685	231
1	1303	123.411862845932	232
1	1303	123.411862845932	233
1	1303	123.411862845932	234
1	1303	123.411862845932	235
1	1313	125.032635004518	236
1	1313	125.032635004518	237
1	1313	125.032635004518	238
1	1313	125.032635004518	239
1	1336	126.309848730488	240
1	1336	126.309848730488	241
1	1336	126.309848730488	242
1	1336	126.309848730488	243
1	1359	127.657009677218	244
1	1359	127.657009677218	245
1	1359	127.657009677218	246
1	1359	127.657009677218	247
1	1382	129.475669423749	248
1	1382	129.475669423749	249
1	1382	129.475669423749	250
1	1382	129.475669423749	251
1	1419	140.158063270523	252
1	1419	140.158063270523	253
1	1419	140.158063270523	254
1	1419	140.158063270523	255
1	1442	141.402310961416	256
1	1442	141.402310961416	257
1	1442	141.402310961416	258
1	1442	141.402310961416	259
1	1465	143.135139680767	260
1	1465	143.135139680767	261
1	1465	143.135139680767	262
1	1465	143.135139680767	263
1	1488	144.39064568596	264
1	1488	144.39064568596	265
1	1488	144.39064568596	266
1	1488	144.39064568596	267
1	1511	145.560070336853	268
1	1511	145.560070336853	269
1	1511	145.560070336853	270
1	1511	145.560070336853	271
1	1534	147.286647743639	272
1	1534	147.286647743639	273
1	1534	147.286647743639	274
1	1534	147.286647743639	275
1	1553	149.275967135774	276
1	1553	149.275967135774	277
1	1553	149.275967135774	278
1	1553	149.275967135774	279
1	1572	150.760328671887	280
1	1572	150.760328671887	281
1	1572	150.760328671887	282
1	1572	150.760328671887	283
1	1599	155.518678136431	284
1	1599	155.518678136431	285
1	1599	155.518678136431	286
1	1599	155.518678136431	287
1	1622	156.752614191382	288
1	1622	156.752614191382	289
1	1622	156.752614191382	290
1	1622	156.752614191382	291
1	1632	158.102340644361	292
1	1632	158.102340644361	293
1	1632	158.102340644361	294
1	1632	158.102340644361	295
1	1651	159.313677310245	296
1	1651	159.313677310245	297
1	1651	159.313677310245	298
1	1651	159.313677310245	299
1	1676	162.579438946206	300
1	1676	162.579438946206	301
1	1676	162.579438946206	302
1	1676	162.579438946206	303
1	1696	163.629998463083	304
1	1696	163.629998463083	305
1	1696	163.629998463083	306
1	1696	163.629998463083	307
1	1719	165.044763106429	308
1	1719	165.044763106429	309
1	1719	165.044763106429	310
1	1719	165.044763106429	311
1	1742	166.16478909953	312
1	1742	166.16478909953	313
1	1742	166.16478909953	314
1	1742	166.16478909953	315
1	1765	168.066414122294	316
1	1765	168.066414122294	317
1	1765	168.066414122294	318
1	1765	168.066414122294	319
1	1792	172.791746390546	320
1	1792	172.791746390546	321
1	1792	172.791746390546	322
1	1792	172.791746390546	323
1	1815	174.28053436711	324
1	1815	174.28053436711	325
1	1815	174.28053436711	326
1	1815	174.28053436711	327
1	1838	176.210472797371	328
1	1838	176.210472797371	329
1	1838	176.210472797371	330
1	1838	176.210472797371	331
1	1861	177.974399859134	332
1	1861	177.974399859134	333
1	1861	177.974399859134	334
1	1861	177.974399859134	335
1	1880	179.203583769611	336
1	1880	179.203583769611	337
1	1880	179.203583769611	338
1	1880	179.203583769611	339
1	1903	181.052676809345	340
1	1903	181.052676809345	341
1	1903	181.052676809345	342
1	1903	181.052676809345	343
1	1926	182.341011337087	344
1	1926	182.341011337087	345
1	1926	182.341011337087	346
1	1926	182.341011337087	347
1	1945	183.452236646307	348
1	1945	183.452236646307	349
1	1945	183.452236646307	350
1	1945	183.452236646307	351
1	1968	185.44199150001	352
1	1968	185.44199150001	353
1	1968	185.44199150001	354
1	1968	185.44199150001	355
1	1993	188.206443800985	356
1	1993	188.206443800985	357
1	1993	188.206443800985	358
1	1993	188.206443800985	359
1	2022	193.53404223137	360
1	2022	193.53404223137	361
1	2022	193.53404223137	362
1	2022	193.53404223137	363
1	2045	195.117823804061	364
1	2045	195.117823804061	365
1	2045	195.117823804061	366
1	2045	195.117823804061	367
1	2066	198.056627263757	368
1	2066	198.056627263757	369
1	2066	198.056627263757	370
1	2066	198.056627263757	371
1	2091	201.269390480617	372
1	2091	201.269390480617	373
1	2091	201.269390480617	374
1	2091	201.269390480617	375
1	2114	202.549618182262	376
1	2114	202.549618182262	377
1	2114	202.549618182262	378
1	2114	202.549618182262	379
1	2137	203.854824050584	380
1	2137	203.854824050584	381
1	2137	203.854824050584	382
1	2137	203.854824050584	383
1	2149	206.682612916259	384
1	2149	206.682612916259	385
1	2149	206.682612916259	386
1	2149	206.682612916259	387
1	2168	208.596910695079	388
1	2168	208.596910695079	389
1	2168	208.596910695079	390
1	2168	208.596910695079	391
1	2191	210.551971270064	392
1	2191	210.551971270064	393
1	2191	210.551971270064	394
1	2191	210.551971270064	395
1	2210	211.877701564536	396
1	2210	211.877701564536	397
1	2210	211.877701564536	398
1	2210	211.877701564536	399
1	2233	213.885750623457	400
1	2233	213.885750623457	401
1	2233	213.885750623457	402
1	2233	213.885750623457	403
1	2258	216.515959842056	404
1	2258	216.515959842056	405
1	2258	216.515959842056	406
1	2258	216.515959842056	407
1	2283	218.719572337223	408
1	2283	218.719572337223	409
1	2283	218.719572337223	410
1	2283	218.719572337223	411
1	2306	220.650381736563	412
1	2306	220.650381736563	413
1	2306	220.650381736563	414
1	2306	220.650381736563	415
1	2325	221.8868766868	416
1	2325	221.8868766868	417
1	2325	221.8868766868	418
1	2325	221.8868766868	419
1	2348	223.038016575682	420
1	2348	223.038016575682	421
1	2348	223.038016575682	422
1	2348	223.038016575682	423
1	2371	224.603793639248	424
1	2371	224.603793639248	425
1	2371	224.603793639248	426
1	2371	224.603793639248	427
1	2394	226.437669037088	428
1	2394	226.437669037088	429
1	2394	226.437669037088	430
1	2394	226.437669037088	431
1	2419	229.881040898939	432
1	2419	229.881040898939	433
1	2419	229.881040898939	434
1	2419	229.881040898939	435
1	2440	233.337389560152	436
1	2440	233.337389560152	437
1	2440	233.337389560152	438
1	2440	233.337389560152	439
1	2467	237.925995254617	440
1	2467	237.925995254617	441
1	2467	237.925995254617	442
1	2467	237.925995254617	443
1	2490	239.061862175698	444
1	2490	239.061862175698	445
1	2490	239.061862175698	446
1	2490	239.061862175698	447
2	8	0.158381092426	0
2	8	0.158381092426	1
2	8	0.158381092426	2
2	32	1.754013332946	3
2	32	1.754013332946	4
2	32	1.754013332946	5
2	56	4.990144764112	6
2	56	4.990144764112	7
2	56	4.990144764112	8
2	82	8.345045749343	9
2	82	8.345045749343	10
2	82	8.345045749343	11
2	104	9.937695487572	12
2	104	9.937695487572	13
2	104	9.937695487572	14
2	142	12.708027414755	15
2	142	12.708027414755	16
2	142	12.708027414755	17
2	171	14.359625715219	18
2	171	14.359625715219	19
2	171	14.359625715219	20
2	188	15.453969530864	21
2	188	15.453969530864	22
2	188	15.453969530864	23
2	211	18.023042215868	24
2	211	18.023042215868	25
2	211	18.023042215868	26
2	233	19.734475426411	27
2	233	19.734475426411	28
2	233	19.734475426411	29
2	257	21.029463300335	30
2	257	21.029463300335	31
2	257	21.029463300335	32
2	282	24.217444300427	33
2	282	24.217444300427	34
2	282	24.217444300427	35
2	312	25.926059388407	36
2	312	25.926059388407	37
2	312	25.926059388407	38
2	325	28.747469664052	39
2	325	28.747469664052	40
2	325	28.747469664052	41
2	366	33.844735631688	42
2	366	33.844735631688	43
2	366	33.844735631688	44
2	385	35.024224202278	45
2	385	35.024224202278	46
2	385	35.024224202278	47
2	405	39.374415576312	48
2	405	39.374415576312	49
2	405	39.374415576312	50
2	433	40.479011140314	51
2	433	40.479011140314	52
2	433	40.479011140314	53
2	461	44.103017591844	54
2	461	44.103017591844	55
2	461	44.103017591844	56
2	488	49.151032268106	57
2	488	49.151032268106	58
2	488	49.151032268106	59
2	518	51.829323892894	60
2	518	51.829323892894	61
2	518	51.829323892894	62
2	535	55.516811899207	63
2	535	55.516811899207	64
2	535	55.516811899207	65
2	567	57.195831333446	66
2	567	57.195831333446	67
2	567	57.195831333446	68
2	582	58.666953695773	69
2	582	58.666953695773	70
2	582	58.666953695773	71
2	601	60.165285134087	72
2	601	60.165285134087	73
2	601	60.165285134087	74
2	625	63.280425415116	75
2	625	63.280425415116	76
2	625	63.280425415116	77
2	653	67.142567395303	78
2	653	67.142567395303	79
2	653	67.142567395303	80
2	686	70.390342646556	81
2	686	70.390342646556	82
2	686	70.390342646556	83
2	710	73.137342734291	84
2	710	73.137342734291	85
2	710	73.137342734291	86
2	737	74.953649442198	87
2	737	74.953649442198	88
2	737	74.953649442198	89
2	758	78.14586987628	90
2	758	78.14586987628	91
2	758	78.14586987628	92
2	784	80.31496391709	93
2	784	80.31496391709	94
2	784	80.31496391709	95
2	815	81.970006947697	96
2	815	81.970006947697	97
2	815	81.970006947697	98
2	833	85.324508591187	99
2	833	85.324508591187	100
2	833	85.324508591187	101
2	850	86.824715734227	102
2	850	86.824715734227	103
2	850	86.824715734227	104
2	872	88.206236468991	105
2	872	88.206236468991	106
2	872	88.206236468991	107
2	896	91.205635473046	108
2	896	91.205635473046	109
2	896	91.205635473046	110
2	927	92.66673716608	111
2	927	92.66673716608	112
2	927	92.66673716608	113
2	938	94.579399193792	114
2	938	94.579399193792	115
2	938	94.579399193792	116
2	964	98.054546341492	117
2	964	98.054546341492	118
2	964	98.054546341492	119
2	988	102.03071095268	120
2	988	102.03071095268	121
2	988	102.03071095268	122
2	1012	103.190066694523	123
2	1012	103.190066694523	124
2	1012	103.190066694523	125
2	1036	104.918557091939	126
2	1036	104.918557091939	127
2	1036	104.918557091939	128
2	1060	106.248039833681	129
2	1060	106.248039833681	130
2	1060	106.248039833681	131
2	1076	107.868639005587	132
2	1076	107.868639005587	133
2	1076	107.868639005587	134
2	1098	109.079288378754	135
2	1098	109.079288378754	136
2	1098	109.079288378754	137
2	1121	110.750441407727	138
2	1121	110.750441407727	139
2	1121	110.750441407727	140
2	1157	113.462730967935	141
2	1157	113.462730967935	142
2	1157	113.462730967935	143
2	1175	114.63370050254	144
2	1175	114.63370050254	145
2	1175	114.63370050254	146
2	1194	115.982923682571	147
2	1194	115.982923682571	148
2	1194	115.982923682571	149
2	1218	117.511525489063	150
2	1218	117.511525489063	151
2	1218	117.511525489063	152
2	1251	118.860907060727	153
2	1251	118.860907060727	154
2	1251	118.860907060727	155
2	1267	120.412895978839	156
2	1267	120.412895978839	157
2	1267	120.412895978839	158
2	1291	121.712731455843	159
2	1291	121.712731455843	160
2	1291	121.712731455843	161
2	1330	125.081736412215	162
2	1330	125.081736412215	163
2	1330	125.081736412215	164
2	1341	126.320070917008	165
2	1341	126.320070917008	166
2	1341	126.320070917008	167
2	1364	127.679524766788	168
2	1364	127.679524766788	169
2	1364	127.679524766788	170
2	1391	129.517443729964	171
2	1391	129.517443729964	172
2	1391	129.517443729964	173
2	1425	140.192276636987	174
2	1425	140.192276636987	175
2	1425	140.192276636987	176
2	1447	141.43491496589	177
2	1447	141.43491496589	178
2	1447	141.43491496589	179
2	1470	143.147377568488	180
2	1470	143.147377568488	181
2	1470	143.147377568488	182
2	1494	144.422007625223	183
2	1494	144.422007625223	184
2	1494	144.422007625223	185
2	1521	145.584617024687	186
2	1521	145.584617024687	187
2	1521	145.584617024687	188
2	1545	147.308214736536	189
2	1545	147.308214736536	190
2	1545	147.308214736536	191
2	1559	149.293634389595	192
2	1559	149.293634389595	193
2	1559	149.293634389595	194
2	1585	150.831331532287	195
2	1585	150.831331532287	196
2	1585	150.831331532287	197
2	1607	155.55490639165	198
2	1607	155.55490639165	199
2	1607	155.55490639165	200
2	1639	158.125295211	201
2	1639	158.125295211	202
2	1639	158.125295211	203
2	1656	159.339917414683	204
2	1656	159.339917414683	205
2	1656	159.339917414683	206
2	1682	162.595539654119	207
2	1682	162.595539654119	208
2	1682	162.595539654119	209
2	1713	163.676085013252	210
2	1713	163.676085013252	211
2	1713	163.676085013252	212
2	1724	165.064729199221	213
2	1724	165.064729199221	214
2	1724	165.064729199221	215
2	1751	166.191375033399	216
2	1751	166.191375033399	217
2	1751	166.191375033399	218
2	1771	168.087951759928	219
2	1771	168.087951759928	220
2	1771	168.087951759928	221
2	1797	172.80547858783	222
2	1797	172.80547858783	223
2	1797	172.80547858783	224
2	1832	174.325753501163	225
2	1832	174.325753501163	226
2	1832	174.325753501163	227
2	1845	176.228789226898	228
2	1845	176.228789226898	229
2	1845	176.228789226898	230
2	1866	177.985450497463	231
2	1866	177.985450497463	232
2	1866	177.985450497463	233
2	1885	179.214297139675	234
2	1885	179.214297139675	235
2	1885	179.214297139675	236
2	1908	181.064658822551	237
2	1908	181.064658822551	238
2	1908	181.064658822551	239
2	1939	182.384560980881	240
2	1939	182.384560980881	241
2	1939	182.384560980881	242
2	1950	183.464433883762	243
2	1950	183.464433883762	244
2	1950	183.464433883762	245
2	1975	185.461917191188	246
2	1975	185.461917191188	247
2	1975	185.461917191188	248
2	2000	188.227749201286	249
2	2000	188.227749201286	250
2	2000	188.227749201286	251
2	2027	193.550143234392	252
2	2027	193.550143234392	253
2	2027	193.550143234392	254
2	2054	195.154571398	255
2	2054	195.154571398	256
2	2054	195.154571398	257
2	2071	198.070028259588	258
2	2071	198.070028259588	259
2	2071	198.070028259588	260
2	2096	201.285840238994	261
2	2096	201.285840238994	262
2	2096	201.285840238994	263
2	2119	202.560580297204	264
2	2119	202.560580297204	265
2	2119	202.560580297204	266
2	2162	206.729539653471	267
2	2162	206.729539653471	268
2	2162	206.729539653471	269
2	2181	208.653891412494	270
2	2181	208.653891412494	271
2	2181	208.653891412494	272
2	2196	210.571517896746	273
2	2196	210.571517896746	274
2	2196	210.571517896746	275
2	2227	211.949790316795	276
2	2227	211.949790316795	277
2	2227	211.949790316795	278
2	2250	213.943012417589	279
2	2250	213.943012417589	280
2	2250	213.943012417589	281
2	2263	216.528177678549	282
2	2263	216.528177678549	283
2	2263	216.528177678549	284
2	2288	218.730653160296	285
2	2288	218.730653160296	286
2	2288	218.730653160296	287
2	2311	220.675924652757	288
2	2311	220.675924652757	289
2	2311	220.675924652757	290
2	2335	221.912483504601	291
2	2335	221.912483504601	292
2	2335	221.912483504601	293
2	2353	223.057222413913	294
2	2353	223.057222413913	295
2	2353	223.057222413913	296
2	2377	224.631341226145	297
2	2377	224.631341226145	298
2	2377	224.631341226145	299
2	2407	226.510343823116	300
2	2407	226.510343823116	301
2	2407	226.510343823116	302
2	2427	229.914168052393	303
2	2427	229.914168052393	304
2	2427	229.914168052393	305
2	2446	233.35479959634	306
2	2446	233.35479959634	307
2	2446	233.35479959634	308
2	2480	237.954785482149	309
2	2480	237.954785482149	310
2	2480	237.954785482149	311
2	2496	239.074658042248	312
2	2496	239.074658042248	313
2	2496	239.074658042248	314
3	9	0.160742618959	0
3	9	0.160742618959	1
3	9	0.160742618959	2
3	9	0.160742618959	3
3	42	1.794807677856	4
3	42	1.794807677856	5
3	42	1.794807677856	6
3	42	1.794807677856	7
3	60	5.011710695974	8
3	60	5.011710695974	9
3	60	5.011710695974	10
3	60	5.011710695974	11
3	81	8.341528264276	12
3	81	8.341528264276	13
3	81	8.341528264276	14
3	81	8.341528264276	15
3	109	9.95003850276	16
3	109	9.95003850276	17
3	109	9.95003850276	18
3	109	9.95003850276	19
3	128	11.536521431183	20
3	128	11.536521431183	21
3	128	11.536521431183	22
3	128	11.536521431183	23
3	147	12.739194363387	24
3	147	12.739194363387	25
3	147	12.739194363387	26
3	147	12.739194363387	27
3	165	14.342218125715	28
3	165	14.342218125715	29
3	165	14.342218125715	30
3	165	14.342218125715	31
3	189	15.463152327295	32
3	189	15.463152327295	33
3	189	15.463152327295	34
3	189	15.463152327295	35
3	210	18.017318495915	36
3	210	18.017318495915	37
3	210	18.017318495915	38
3	210	18.017318495915	39
3	235	19.742854141818	40
3	235	19.742854141818	41
3	235	19.742854141818	42
3	235	19.742854141818	43
3	256	21.022259370507	44
3	256	21.022259370507	45
3	256	21.022259370507	46
3	256	21.022259370507	47
3	283	24.218422179124	48
3	283	24.218422179124	49
3	283	24.218422179124	50
3	283	24.218422179124	51
3	304	25.897220099541	52
3	304	25.897220099541	53
3	304	25.897220099541	54
3	304	25.897220099541	55
3	327	28.752399109811	56
3	327	28.752399109811	57
3	327	28.752399109811	58
3	327	28.752399109811	59
3	354	33.822650014077	60
3	354	33.822650014077	61
3	354	33.822650014077	62
3	354	33.822650014077	63
3	378	35.004741629577	64
3	378	35.004741629577	65
3	378	35.004741629577	66
3	378	35.004741629577	67
3	406	39.381589994446	68
3	406	39.381589994446	69
3	406	39.381589994446	70
3	406	39.381589994446	71
3	427	40.4455327027	72
3	427	40.4455327027	73
3	427	40.4455327027	74
3	427	40.4455327027	75
3	449	44.06357278907	76
3	449	44.06357278907	77
3	449	44.06357278907	78
3	449	44.06357278907	79
3	476	49.114043477433	80
3	476	49.114043477433	81
3	476	49.114043477433	82
3	476	49.114043477433	83
3	502	50.28996411748	84
3	502	50.28996411748	85
3	502	50.28996411748	86
3	502	50.28996411748	87
3	539	55.533459976703	88
3	539	55.533459976703	89
3	539	55.533459976703	90
3	539	55.533459976703	91
3	559	57.185048355249	92
3	559	57.185048355249	93
3	559	57.185048355249	94
3	559	57.185048355249	95
3	581	58.664809002471	96
3	581	58.664809002471	97
3	581	58.664809002471	98
3	581	58.664809002471	99
3	604	60.17398088795	100
3	604	60.17398088795	101
3	604	60.17398088795	102
3	604	60.17398088795	103
3	630	63.301574289335	104
3	630	63.301574289335	105
3	630	63.301574289335	106
3	630	63.301574289335	107
3	652	67.137160625979	108
3	652	67.137160625979	109
3	652	67.137160625979	110
3	652	67.137160625979	111
3	692	70.40138934395	112
3	692	70.40138934395	113
3	692	70.40138934395	114
3	692	70.40138934395	115
3	715	73.14872226661	116
3	715	73.14872226661	117
3	715	73.14872226661	118
3	715	73.14872226661	119
3	736	74.948796399454	120
3	736	74.948796399454	121
3	736	74.948796399454	122
3	736	74.948796399454	123
3	762	78.161980451893	124
3	762	78.161980451893	125
3	762	78.161980451893	126
3	762	78.161980451893	127
3	791	80.335997349927	128
3	791	80.335997349927	129
3	791	80.335997349927	130
3	791	80.335997349927	131
3	806	81.941997079133	132
3	806	81.941997079133	133
3	806	81.941997079133	134
3	806	81.941997079133	135
3	828	85.314387498736	136
3	828	85.314387498736	137
3	828	85.314387498736	138
3	828	85.314387498736	139
3	848	86.816312326018	140
3	848	86.816312326018	141
3	848	86.816312326018	142
3	848	86.816312326018	143
3	878	88.218588715818	144
3	878	88.218588715818	145
3	878	88.218588715818	146
3	878	88.218588715818	147
3	901	91.2191531469	148
3	901	91.2191531469	149
3	901	91.2191531469	150
3	901	91.2191531469	151
3	915	92.62974202983	152
3	915	92.62974202983	153
3	915	92.62974202983	154
3	915	92.62974202983	155
3	945	94.594959756806	156
3	945	94.594959756806	157
3	945	94.594959756806	158
3	945	94.594959756806	159
3	971	98.074644752874	160
3	971	98.074644752874	161
3	971	98.074644752874	162
3	971	98.074644752874	163
3	1006	103.178220535794	164
3	1006	103.178220535794	165
3	1006	103.178220535794	166
3	1006	103.178220535794	167
3	1029	104.897158033947	168
3	1029	104.897158033947	169
3	1029	104.897158033947	170
3	1029	104.897158033947	171
3	1052	106.232832045032	172
3	1052	106.232832045032	173
3	1052	106.232832045032	174
3	1052	106.232832045032	175
3	1075	107.864315584624	176
3	1075	107.864315584624	177
3	1075	107.864315584624	178
3	1075	107.864315584624	179
3	1099	109.082353814878	180
3	1099	109.082353814878	181
3	1099	109.082353814878	182
3	1099	109.082353814878	183
3	1125	110.767673468349	184
3	1125	110.767673468349	185
3	1125	110.767673468349	186
3	1125	110.767673468349	187
3	1151	113.447321866641	188
3	1151	113.447321866641	189
3	1151	113.447321866641	190
3	1151	113.447321866641	191
3	1174	114.633486556831	192
3	1174	114.633486556831	193
3	1174	114.633486556831	194
3	1174	114.633486556831	195
3	1193	115.97385901909	196
3	1193	115.97385901909	197
3	1193	115.97385901909	198
3	1193	115.97385901909	199
3	1216	117.507022978952	200
3	1216	117.507022978952	201
3	1216	117.507022978952	202
3	1216	117.507022978952	203
3	1239	118.819535512663	204
3	1239	118.819535512663	205
3	1239	118.819535512663	206
3	1239	118.819535512663	207
3	1262	120.40091866116	208
3	1262	120.40091866116	209
3	1262	120.40091866116	210
3	1262	120.40091866116	211
3	1285	121.699562258758	212
3	1285	121.699562258758	213
3	1285	121.699562258758	214
3	1285	121.699562258758	215
3	1319	125.048742546267	216
3	1319	125.048742546267	217
3	1319	125.048742546267	218
3	1319	125.048742546267	219
3	1343	126.324651648626	220
3	1343	126.324651648626	221
3	1343	126.324651648626	222
3	1343	126.324651648626	223
3	1368	127.694627358292	224
3	1368	127.694627358292	225
3	1368	127.694627358292	226
3	1368	127.694627358292	227
3	1390	129.513350424326	228
3	1390	129.513350424326	229
3	1390	129.513350424326	230
3	1390	129.513350424326	231
3	1428	140.201352221889	232
3	1428	140.201352221889	233
3	1428	140.201352221889	234
3	1428	140.201352221889	235
3	1452	141.465982887149	236
3	1452	141.465982887149	237
3	1452	141.465982887149	238
3	1452	141.465982887149	239
3	1477	143.164097960455	240
3	1477	143.164097960455	241
3	1477	143.164097960455	242
3	1477	143.164097960455	243
3	1497	144.427342396033	244
3	1497	144.427342396033	245
3	1497	144.427342396033	246
3	1497	144.427342396033	247
3	1516	145.570084179979	248
3	1516	145.570084179979	249
3	1516	145.570084179979	250
3	1516	145.570084179979	251
3	1539	147.297320713311	252
3	1539	147.297320713311	253
3	1539	147.297320713311	254
3	1539	147.297320713311	255
3	1565	149.307293392144	256
3	1565	149.307293392144	257
3	1565	149.307293392144	258
3	1565	149.307293392144	259
3	1580	150.793951299334	260
3	1580	150.793951299334	261
3	1580	150.793951299334	262
3	1580	150.793951299334	263
3	1611	155.567066135624	264
3	1611	155.567066135624	265
3	1611	155.567066135624	266
3	1611	155.567066135624	267
3	1637	158.116923389992	268
3	1637	158.116923389992	269
3	1637	158.116923389992	270
3	1637	158.116923389992	271
3	1657	159.343220397962	272
3	1657	159.343220397962	273
3	1657	159.343220397962	274
3	1657	159.343220397962	275
3	1681	162.589767001753	276
3	1681	162.589767001753	277
3	1681	162.589767001753	278
3	1681	162.589767001753	279
3	1701	163.644417794972	280
3	1701	163.644417794972	281
3	1701	163.644417794972	282
3	1701	163.644417794972	283
3	1728	165.075852546028	284
3	1728	165.075852546028	285
3	1728	165.075852546028	286
3	1728	165.075852546028	287
3	1748	166.183641267977	288
3	1748	166.183641267977	289
3	1748	166.183641267977	290
3	1748	166.183641267977	291
3	1777	168.110791696448	292
3	1777	168.110791696448	293
3	1777	168.110791696448	294
3	1777	168.110791696448	295
3	1801	172.816150306596	296
3	1801	172.816150306596	297
3	1801	172.816150306596	298
3	1801	172.816150306596	299
3	1820	174.291766200833	300
3	1820	174.291766200833	301
3	1820	174.291766200833	302
3	1820	174.291766200833	303
3	1844	176.22867747305	304
3	1844	176.22867747305	305
3	1844	176.22867747305	306
3	1844	176.22867747305	307
3	1867	177.988450591426	308
3	1867	177.988450591426	309
3	1867	177.988450591426	310
3	1867	177.988450591426	311
3	1890	179.229326263842	312
3	1890	179.229326263842	313
3	1890	179.229326263842	314
3	1890	179.229326263842	315
3	1909	181.066113563195	316
3	1909	181.066113563195	317
3	1909	181.066113563195	318
3	1909	181.066113563195	319
3	1931	182.352459498432	320
3	1931	182.352459498432	321
3	1931	182.352459498432	322
3	1931	182.352459498432	323
3	1961	183.5478468289	324
3	1961	183.5478468289	325
3	1961	183.5478468289	326
3	1961	183.5478468289	327
3	1973	185.456468982758	328
3	1973	185.456468982758	329
3	1973	185.456468982758	330
3	1973	185.456468982758	331
3	1998	188.219039886782	332
3	1998	188.219039886782	333
3	1998	188.219039886782	334
3	1998	188.219039886782	335
3	2031	193.565446981041	336
3	2031	193.565446981041	337
3	2031	193.565446981041	338
3	2031	193.565446981041	339
3	2053	195.150983487266	340
3	2053	195.150983487266	341
3	2053	195.150983487266	342
3	2053	195.150983487266	343
3	2072	198.072609715911	344
3	2072	198.072609715911	345
3	2072	198.072609715911	346
3	2072	198.072609715911	347
3	2100	201.298580454864	348
3	2100	201.298580454864	349
3	2100	201.298580454864	350
3	2100	201.298580454864	351
3	2121	202.566183928687	352
3	2121	202.566183928687	353
3	2121	202.566183928687	354
3	2121	202.566183928687	355
3	2154	206.695686997761	356
3	2154	206.695686997761	357
3	2154	206.695686997761	358
3	2154	206.695686997761	359
3	2174	208.628433350405	360
3	2174	208.628433350405	361
3	2174	208.628433350405	362
3	2174	208.628433350405	363
3	2200	210.596100402691	364
3	2200	210.596100402691	365
3	2200	210.596100402691	366
3	2200	210.596100402691	367
3	2218	211.922493506515	368
3	2218	211.922493506515	369
3	2218	211.922493506515	370
3	2218	211.922493506515	371
3	2241	213.919419878189	372
3	2241	213.919419878189	373
3	2241	213.919419878189	374
3	2241	213.919419878189	375
3	2272	216.56059942512	376
3	2272	216.56059942512	377
3	2272	216.56059942512	378
3	2272	216.56059942512	379
3	2292	218.741083814864	380
3	2292	218.741083814864	381
3	2292	218.741083814864	382
3	2292	218.741083814864	383
3	2315	220.687300926306	384
3	2315	220.687300926306	385
3	2315	220.687300926306	386
3	2315	220.687300926306	387
3	2330	221.897970131935	388
3	2330	221.897970131935	389
3	2330	221.897970131935	390
3	2330	221.897970131935	391
3	2358	223.074910769566	392
3	2358	223.074910769566	393
3	2358	223.074910769566	394
3	2358	223.074910769566	395
3	2384	224.653423364201	396
3	2384	224.653423364201	397
3	2384	224.653423364201	398
3	2384	224.653423364201	399
3	2402	226.489759525032	400
3	2402	226.489759525032	401
3	2402	226.489759525032	402
3	2402	226.489759525032	403
3	2431	229.931148706544	404
3	2431	229.931148706544	405
3	2431	229.931148706544	406
3	2431	229.931148706544	407
3	2445	233.347396478047	408
3	2445	233.347396478047	409
3	2445	233.347396478047	410
3	2445	233.347396478047	411
3	2473	237.941526566828	412
3	2473	237.941526566828	413
3	2473	237.941526566828	414
3	2473	237.941526566828	415
3	2506	239.111189433045	416
3	2506	239.111189433045	417
3	2506	239.111189433045	418
3	2506	239.111189433045	419
4	10	0.163252200566	0
4	10	0.163252200566	1
4	31	1.753305978569	2
4	31	1.753305978569	3
4	69	5.03506359782	4
4	69	5.03506359782	5
4	91	8.358814314125	6
4	91	8.358814314125	7
4	113	9.959566243941	8
4	113	9.959566243941	9
4	127	11.534894678714	10
4	127	11.534894678714	11
4	148	12.739323321636	12
4	148	12.739323321636	13
4	172	14.360579101035	14
4	172	14.360579101035	15
4	212	18.023424194898	16
4	212	18.023424194898	17
4	234	19.735358710074	18
4	234	19.735358710074	19
4	266	21.041883121065	20
4	266	21.041883121065	21
4	281	24.216944570323	22
4	281	24.216944570323	23
4	309	25.90904548556	24
4	309	25.90904548556	25
4	326	28.751499656978	26
4	326	28.751499656978	27
4	355	33.830601411096	28
4	355	33.830601411096	29
4	377	34.998924659473	30
4	377	34.998924659473	31
4	404	39.371651090762	32
4	404	39.371651090762	33
4	450	44.072446998957	34
4	450	44.072446998957	35
4	482	49.140524239165	36
4	482	49.140524239165	37
4	499	50.251757757996	38
4	499	50.251757757996	39
4	544	55.552786095256	40
4	544	55.552786095256	41
4	558	57.178561251853	42
4	558	57.178561251853	43
4	590	58.678344968224	44
4	590	58.678344968224	45
4	600	60.156455555824	46
4	600	60.156455555824	47
4	638	63.331274864991	48
4	638	63.331274864991	49
4	654	67.142964943939	50
4	654	67.142964943939	51
4	675	68.616602475635	52
4	675	68.616602475635	53
4	685	70.384639834213	54
4	685	70.384639834213	55
4	711	73.146272769486	56
4	711	73.146272769486	57
4	733	74.933664274689	58
4	733	74.933664274689	59
4	763	78.169600372147	60
4	763	78.169600372147	61
4	783	80.312440164788	62
4	783	80.312440164788	63
4	849	86.821272992881	64
4	849	86.821272992881	65
4	871	88.204934598004	66
4	871	88.204934598004	67
4	897	91.212771590238	68
4	897	91.212771590238	69
4	916	92.637996469243	70
4	916	92.637996469243	71
4	939	94.583663869616	72
4	939	94.583663869616	73
4	963	98.05273493834	74
4	963	98.05273493834	75
4	992	102.059232115601	76
4	992	102.059232115601	77
4	1007	103.180602036607	78
4	1007	103.180602036607	79
4	1034	104.91194231428	80
4	1034	104.91194231428	81
4	1053	106.236335001656	82
4	1053	106.236335001656	83
4	1077	107.873772740099	84
4	1077	107.873772740099	85
4	1111	109.139617766847	86
4	1111	109.139617766847	87
4	1131	110.782443445858	88
4	1131	110.782443445858	89
4	1158	113.466433324722	90
4	1158	113.466433324722	91
4	1176	114.633712575497	92
4	1176	114.633712575497	93
4	1199	115.984299898077	94
4	1199	115.984299898077	95
4	1217	117.508886979714	96
4	1217	117.508886979714	97
4	1240	118.825097284852	98
4	1240	118.825097284852	99
4	1268	120.413938211195	100
4	1268	120.413938211195	101
4	1286	121.705677319169	102
4	1286	121.705677319169	103
4	1308	123.441494078828	104
4	1308	123.441494078828	105
4	1318	125.048146384001	106
4	1318	125.048146384001	107
4	1342	126.324544810809	108
4	1342	126.324544810809	109
4	1373	127.705518217867	110
4	1373	127.705518217867	111
4	1387	129.501581446382	112
4	1387	129.501581446382	113
4	1424	140.18968731995	114
4	1424	140.18968731995	115
4	1460	141.480517021332	116
4	1460	141.480517021332	117
4	1471	143.152356268244	118
4	1471	143.152356268244	119
4	1493	144.413361785983	120
4	1493	144.413361785983	121
4	1522	145.588645841553	122
4	1522	145.588645841553	123
4	1540	147.299275297738	124
4	1540	147.299275297738	125
4	1558	149.291726365503	126
4	1558	149.291726365503	127
4	1577	150.77555296432	128
4	1577	150.77555296432	129
4	1604	155.540492190417	130
4	1604	155.540492190417	131
4	1627	156.765269141808	132
4	1627	156.765269141808	133
4	1638	158.123674526964	134
4	1638	158.123674526964	135
4	1666	159.366235819047	136
4	1666	159.366235819047	137
4	1706	163.66057937486	138
4	1706	163.66057937486	139
4	1734	165.087451902067	140
4	1734	165.087451902067	141
4	1747	166.177071565762	142
4	1747	166.177071565762	143
4	1770	168.087477652944	144
4	1770	168.087477652944	145
4	1803	172.823694061034	146
4	1803	172.823694061034	147
4	1826	174.304326520617	148
4	1826	174.304326520617	149
4	1843	176.220998058275	150
4	1843	176.220998058275	151
4	1868	177.990854656844	152
4	1868	177.990854656844	153
4	1898	179.252337390221	154
4	1898	179.252337390221	155
4	1910	181.066915732748	156
4	1910	181.066915732748	157
4	1932	182.357768360245	158
4	1932	182.357768360245	159
4	1951	183.469891851045	160
4	1951	183.469891851045	161
4	1974	185.45769772759	162
4	1974	185.45769772759	163
4	1999	188.225430280532	164
4	1999	188.225430280532	165
4	2036	193.578239860061	166
4	2036	193.578239860061	167
4	2050	195.138933537525	168
4	2050	195.138933537525	169
4	2081	198.083059860719	170
4	2081	198.083059860719	171
4	2106	201.314194794821	172
4	2106	201.314194794821	173
4	2120	202.562222432957	174
4	2120	202.562222432957	175
4	2142	203.893240060142	176
4	2142	203.893240060142	177
4	2155	206.702814516873	178
4	2155	206.702814516873	179
4	2173	208.618978985292	180
4	2173	208.618978985292	181
4	2205	210.622572762721	182
4	2205	210.622572762721	183
4	2215	211.89409599447	184
4	2215	211.89409599447	185
4	2238	213.899420372236	186
4	2238	213.899420372236	187
4	2271	216.557223528496	188
4	2271	216.557223528496	189
4	2297	218.753575203816	190
4	2297	218.753575203816	191
4	2320	220.704410880472	192
4	2320	220.704410880472	193
4	2339	221.92248731717	194
4	2339	221.92248731717	195
4	2366	223.095837039526	196
4	2366	223.095837039526	197
4	2376	224.626486972579	198
4	2376	224.626486972579	199
4	2399	226.451254502934	200
4	2399	226.451254502934	201
4	2424	229.891135093005	202
4	2424	229.891135093005	203
4	2458	233.399636349231	204
4	2458	233.399636349231	205
4	2472	237.94090824777	206
4	2472	237.94090824777	207
4	2495	239.074479792795	208
4	2495	239.074479792795	209
5	20	0.173926180367	0
5	20	0.173926180367	1
5	20	0.173926180367	2
5	38	1.784422255105	3
5	38	1.784422255105	4
5	38	1.784422255105	5
5	65	5.024151180881	6
5	65	5.024151180881	7
5	65	5.024151180881	8
5	90	8.356920010003	9
5	90	8.356920010003	10
5	90	8.356920010003	11
5	108	9.949454623026	12
5	108	9.949454623026	13
5	108	9.949454623026	14
5	146	12.731469867477	15
5	146	12.731469867477	16
5	146	12.731469867477	17
5	170	14.355302274116	18
5	170	14.355302274116	19
5	170	14.355302274116	20
5	193	15.472017504862	21
5	193	15.472017504862	22
5	193	15.472017504862	23
5	217	18.029842695844	24
5	217	18.029842695844	25
5	217	18.029842695844	26
5	245	19.753354040515	27
5	245	19.753354040515	28
5	245	19.753354040515	29
5	262	21.037858981208	30
5	262	21.037858981208	31
5	262	21.037858981208	32
5	293	24.235145069022	33
5	293	24.235145069022	34
5	293	24.235145069022	35
5	331	28.760092957144	36
5	331	28.760092957144	37
5	331	28.760092957144	38
5	360	33.834449587493	39
5	360	33.834449587493	40
5	360	33.834449587493	41
5	389	35.040240992143	42
5	389	35.040240992143	43
5	389	35.040240992143	44
5	416	39.395790961367	45
5	416	39.395790961367	46
5	416	39.395790961367	47
5	432	40.476868335575	48
5	432	40.476868335575	49
5	432	40.476868335575	50
5	455	44.075999974007	51
5	455	44.075999974007	52
5	455	44.075999974007	53
5	481	49.137790276971	54
5	481	49.137790276971	55
5	481	49.137790276971	56
5	507	50.313773748437	57
5	507	50.313773748437	58
5	507	50.313773748437	59
5	522	51.840380764635	60
5	522	51.840380764635	61
5	522	51.840380764635	62
5	547	55.564752137038	63
5	547	55.564752137038	64
5	547	55.564752137038	65
5	566	57.195181607697	66
5	566	57.195181607697	67
5	566	57.195181607697	68
5	608	60.180514810624	69
5	608	60.180514810624	70
5	608	60.180514810624	71
5	629	63.293240655341	72
5	629	63.293240655341	73
5	629	63.293240655341	74
5	659	67.151939805854	75
5	659	67.151939805854	76
5	659	67.151939805854	77
5	697	70.42177364356	78
5	697	70.42177364356	79
5	697	70.42177364356	80
5	716	73.15232965762	81
5	716	73.15232965762	82
5	716	73.15232965762	83
5	745	74.967476099274	84
5	745	74.967476099274	85
5	745	74.967476099274	86
5	770	78.191859846441	87
5	770	78.191859846441	88
5	770	78.191859846441	89
5	790	80.326239652828	90
5	790	80.326239652828	91
5	790	80.326239652828	92
5	811	81.952573008301	93
5	811	81.952573008301	94
5	811	81.952573008301	95
5	834	85.325792255906	96
5	834	85.325792255906	97
5	834	85.325792255906	98
5	855	86.826987667587	99
5	855	86.826987667587	100
5	855	86.826987667587	101
5	879	88.22216304317	102
5	879	88.22216304317	103
5	879	88.22216304317	104
5	921	92.642922575282	105
5	921	92.642922575282	106
5	921	92.642922575282	107
5	950	94.609248875164	108
5	950	94.609248875164	109
5	950	94.609248875164	110
5	970	98.065600302791	111
5	970	98.065600302791	112
5	970	98.065600302791	113
5	995	102.07580158819	114
5	995	102.07580158819	115
5	995	102.07580158819	116
5	1018	103.222369784818	117
5	1018	103.222369784818	118
5	1018	103.222369784818	119
5	1035	104.917347565758	120
5	1035	104.917347565758	121
5	1035	104.917347565758	122
5	1064	106.267774559117	123
5	1064	106.267774559117	124
5	1064	106.267774559117	125
5	1087	107.914424022845	126
5	1087	107.914424022845	127
5	1087	107.914424022845	128
5	1107	109.097184345121	129
5	1107	109.097184345121	130
5	1107	109.097184345121	131
5	1130	110.780981932566	132
5	1130	110.780981932566	133
5	1130	110.780981932566	134
5	1156	113.460040525027	135
5	1156	113.460040525027	136
5	1156	113.460040525027	137
5	1205	116.01899880732	138
5	1205	116.01899880732	139
5	1205	116.01899880732	140
5	1225	117.521139984731	141
5	1225	117.521139984731	142
5	1225	117.521139984731	143
5	1247	118.840684181204	144
5	1247	118.840684181204	145
5	1247	118.840684181204	146
5	1274	120.431404492726	147
5	1274	120.431404492726	148
5	1274	120.431404492726	149
5	1297	121.722821169716	150
5	1297	121.722821169716	151
5	1297	121.722821169716	152
5	1326	125.061906820179	153
5	1326	125.061906820179	154
5	1326	125.061906820179	155
5	1353	126.347610426791	156
5	1353	126.347610426791	157
5	1353	126.347610426791	158
5	1376	127.715583856994	159
5	1376	127.715583856994	160
5	1376	127.715583856994	161
5	1399	129.540192244489	162
5	1399	129.540192244489	163
5	1399	129.540192244489	164
5	1432	140.207950318184	165
5	1432	140.207950318184	166
5	1432	140.207950318184	167
5	1451	141.456652143169	168
5	1451	141.456652143169	169
5	1451	141.456652143169	170
5	1482	143.176473118673	171
5	1482	143.176473118673	172
5	1482	143.176473118673	173
5	1505	144.450108735338	174
5	1505	144.450108735338	175
5	1505	144.450108735338	176
5	1523	145.590403387008	177
5	1523	145.590403387008	178
5	1523	145.590403387008	179
5	1589	150.850772944808	180
5	1589	150.850772944808	181
5	1589	150.850772944808	182
5	1616	155.595770363039	183
5	1616	155.595770363039	184
5	1616	155.595770363039	185
5	1665	159.362909408007	186
5	1665	159.362909408007	187
5	1665	159.362909408007	188
5	1690	162.616768241046	189
5	1690	162.616768241046	190
5	1690	162.616768241046	191
5	1707	163.665941905166	192
5	1707	163.665941905166	193
5	1707	163.665941905166	194
5	1729	165.081209902818	195
5	1729	165.081209902818	196
5	1729	165.081209902818	197
5	1756	166.197183254118	198
5	1756	166.197183254118	199
5	1756	166.197183254118	200
5	1778	168.118046846095	201
5	1778	168.118046846095	202
5	1778	168.118046846095	203
5	1802	172.821702568073	204
5	1802	172.821702568073	205
5	1802	172.821702568073	206
5	1825	174.302680587313	207
5	1825	174.302680587313	208
5	1825	174.302680587313	209
5	1855	176.251831497976	210
5	1855	176.251831497976	211
5	1855	176.251831497976	212
5	1889	179.228019957506	213
5	1889	179.228019957506	214
5	1889	179.228019957506	215
5	1920	181.082043947921	216
5	1920	181.082043947921	217
5	1920	181.082043947921	218
5	1955	183.478060433892	219
5	1955	183.478060433892	220
5	1955	183.478060433892	221
5	1982	185.471830974659	222
5	1982	185.471830974659	223
5	1982	185.471830974659	224
5	2007	188.235499206318	225
5	2007	188.235499206318	226
5	2007	188.235499206318	227
5	2037	193.584329822063	228
5	2037	193.584329822063	229
5	2037	193.584329822063	230
5	2076	198.081389825322	231
5	2076	198.081389825322	232
5	2076	198.081389825322	233
5	2105	201.313920688271	234
5	2105	201.313920688271	235
5	2105	201.313920688271	236
5	2131	202.577053580464	237
5	2131	202.577053580464	238
5	2131	202.577053580464	239
5	2185	208.664531847675	240
5	2185	208.664531847675	241
5	2185	208.664531847675	242
5	2223	211.938002826261	243
5	2223	211.938002826261	244
5	2223	211.938002826261	245
5	2246	213.932233935533	246
5	2246	213.932233935533	247
5	2246	213.932233935533	248
5	2267	216.546735791752	249
5	2267	216.546735791752	250
5	2267	216.546735791752	251
5	2298	218.763452237495	252
5	2298	218.763452237495	253
5	2298	218.763452237495	254
5	2340	221.926447198138	255
5	2340	221.926447198138	256
5	2340	221.926447198138	257
5	2357	223.068679013895	258
5	2357	223.068679013895	259
5	2357	223.068679013895	260
5	2383	224.644575522899	261
5	2383	224.644575522899	262
5	2383	224.644575522899	263
5	2408	226.519442869434	264
5	2408	226.519442869434	265
5	2408	226.519442869434	266
5	2454	233.365794454761	267
5	2454	233.365794454761	268
5	2454	233.365794454761	269
5	2484	237.998336726778	270
5	2484	237.998336726778	271
5	2484	237.998336726778	272
5	2502	239.091120738447	273
5	2502	239.091120738447	274
5	2502	239.091120738447	275
6	23	0.183926180367	0
6	41	1.794422255105	1
6	68	5.034151180881	2
6	112	9.959454623026	3
6	151	12.741469867477	4
6	175	14.365302274116	5
6	200	15.482017504862	6
6	248	19.763354040515	7
6	269	21.047858981208	8
6	296	24.245145069022	9
6	340	28.770092957144	10
6	419	39.405790961367	11
6	436	40.486868335575	12
6	460	44.085999974007	13
6	525	51.850380764635	14
6	550	55.574752137038	15
6	615	60.190514810624	16
6	633	63.303240655341	17
6	700	70.43177364356	18
6	794	80.336239652828	19
6	840	85.335792255906	20
6	863	86.836987667587	21
6	926	92.652922575282	22
6	974	98.075600302791	23
6	998	102.08580158819	24
6	1021	103.232369784818	25
6	1067	106.277774559117	26
6	1110	109.107184345121	27
6	1134	110.790981932566	28
6	1208	116.02899880732	29
6	1231	117.531139984731	30
6	1250	118.850684181204	31
6	1277	120.441404492726	32
6	1300	121.732821169716	33
6	1329	125.071906820179	34
6	1379	127.725583856994	35
6	1439	140.217950318184	36
6	1455	141.466652143169	37
6	1485	143.186473118673	38
6	1531	145.600403387008	39
6	1592	150.860772944808	40
6	1619	155.605770363039	41
6	1693	162.626768241046	42
6	1712	163.675941905166	43
6	1737	165.091209902818	44
6	1785	168.128046846095	45
6	1810	172.831702568073	46
6	1829	174.312680587313	47
6	1893	179.238019957506	48
6	1923	181.092043947921	49
6	1988	185.481830974659	50
6	2042	193.594329822063	51
6	2084	198.091389825322	52
6	2109	201.323920688271	53
6	2134	202.587053580464	54
6	2226	211.948002826261	55
6	2249	213.942233935533	56
6	2270	216.556735791752	57
6	2345	221.936447198138	58
6	2414	226.529442869434	59
6	2457	233.375794454761	60
6	2505	239.101120738447	61

