version 2
run General-1-20230921-21:40:26-6208
attr configname General
attr datetime 20230921-21:40:26
attr experiment General
attr inifile omnetpp.ini
attr iterationvars ""
attr iterationvarsf ""
attr measurement ""
attr network Network2
attr processid 6208
attr repetition 1
attr replication #1
attr resultdir results
attr runnumber 1
attr seedset 1
param Network2.node[*].transmissionTime "uniform(1s, 2s)"
param Network2.node[*].delayTime "uniform(0.01s, 0.2s)"
param Network2.node[*].processingTime exponential(0.01s)
param Network2.node[*].lossProbability 0.3

vector 0 Network2.node[0] txVector ETV
vector 1 Network2.node[1] txVector ETV
vector 2 Network2.node[3] txVector ETV
vector 3 Network2.node[4] txVector ETV
vector 4 Network2.node[5] rxVector ETV
vector 5 Network2.node[2] txVector ETV
vector 6 Network2.node[6] txVector ETV
0	1	0.089234179703	0
0	24	2.086418987836	1
0	47	3.290871236825	2
0	70	4.809023785058	3
0	72	6.124539418963	4
0	91	7.811040343602	5
0	107	9.280278868393	6
0	130	10.579208979269	7
0	132	12.115105387873	8
0	134	13.778900036707	9
0	157	15.293789144258	10
0	180	16.931625622909	11
0	203	18.046371592793	12
0	226	19.055379588276	13
0	245	20.752197750963	14
0	247	22.262008029155	15
0	270	23.364143261572	16
0	289	24.597117534957	17
0	291	26.513527408128	18
0	293	28.295485870798	19
0	312	29.91181481362	20
0	335	31.107244293789	21
0	355	32.921120655608	22
0	357	34.053387930269	23
0	364	35.817629542785	24
0	366	37.570385101136	25
0	389	38.63692158356	26
0	412	39.802327696352	27
0	414	41.406638185844	28
0	433	42.956186105149	29
0	456	44.415731385933	30
0	458	46.260465831147	31
0	481	48.165858143126	32
0	496	49.401126469835	33
0	519	51.08019530715	34
0	542	52.777704802924	35
0	544	54.095088753966	36
0	567	55.717008122593	37
0	569	56.733470887063	38
0	592	58.032271111036	39
0	611	59.410195287667	40
0	631	61.314074550407	41
0	651	62.647358855816	42
0	653	63.864858074697	43
0	676	65.065067069955	44
0	699	66.909776679357	45
0	722	68.495135892532	46
0	745	69.638141725329	47
0	768	71.215421171976	48
0	770	72.463154073456	49
0	793	73.72532715241	50
0	812	75.228323684889	51
0	835	76.449756420567	52
0	845	78.26752480946	53
0	847	79.947543955757	54
0	870	81.531503744074	55
0	890	82.933896259987	56
0	913	84.83929829381	57
0	936	86.839067411959	58
0	959	88.372720759945	59
0	982	89.678518999951	60
0	1002	91.594924850972	61
0	1021	92.822234585533	62
0	1028	94.300684930176	63
0	1030	95.964787491715	64
0	1053	97.462037580671	65
0	1055	98.655498151785	66
0	1078	99.723929212081	67
0	1101	101.076935296065	68
0	1124	102.71245245787	69
0	1147	104.522441167968	70
0	1170	105.98054211971	71
0	1189	107.408279450029	72
0	1191	108.949572028244	73
0	1193	110.222270895844	74
0	1216	111.715539163096	75
0	1239	113.02005714865	76
0	1241	114.46646750311	77
0	1264	115.795286763344	78
0	1266	117.740595207667	79
0	1289	119.166156593595	80
0	1291	120.742605229957	81
0	1293	121.944071898121	82
0	1295	123.664589815424	83
0	1318	125.511933847447	84
0	1341	126.701539793867	85
0	1356	128.037212182419	86
0	1358	129.971114794608	87
0	1360	131.829011898372	88
0	1383	133.557862772258	89
0	1406	134.916056934861	90
0	1408	136.240195469349	91
0	1431	137.697555648978	92
0	1454	139.147693587118	93
0	1477	140.215500519029	94
0	1479	141.395616980619	95
0	1502	143.014951164485	96
0	1525	144.14928976947	97
0	1527	145.367389956373	98
0	1529	146.929221861181	99
0	1531	148.06337538606	100
0	1554	149.772192685981	101
0	1577	150.944797305739	102
0	1595	152.340800520381	103
0	1618	154.201843663001	104
0	1620	155.430049398331	105
0	1622	156.443816915503	106
0	1645	157.860540875815	107
0	1647	159.342638487345	108
0	1670	160.864364280947	109
0	1693	162.739697004552	110
0	1695	163.747674893239	111
0	1718	165.45974041929	112
0	1741	167.098867269349	113
0	1743	168.2121638885	114
0	1766	170.161000771797	115
0	1768	171.501380066504	116
0	1788	173.296681230772	117
0	1811	175.276164588403	118
0	1834	177.122677162873	119
0	1836	178.900145912893	120
0	1859	180.39498899656	121
0	1861	181.693695861964	122
0	1880	183.442838491058	123
0	1899	184.586445485126	124
0	1922	185.855843016762	125
0	1945	187.690329525271	126
0	1964	188.785961156129	127
0	1966	190.65615290252	128
0	1968	191.893021607189	129
0	1991	193.279025615542	130
0	2010	195.031847454025	131
0	2029	196.242611955036	132
0	2031	198.033869093633	133
0	2033	199.076587439398	134
0	2056	200.710311222705	135
0	2058	202.533314268221	136
0	2060	204.485089963884	137
0	2070	205.536002348526	138
0	2093	206.617626327672	139
0	2116	208.323247460299	140
0	2139	209.576686500222	141
0	2141	211.327210504212	142
0	2160	212.845564663526	143
0	2183	214.127704112208	144
0	2206	215.345701287384	145
0	2229	216.673957394319	146
0	2239	218.611466619535	147
0	2262	220.25688919879	148
0	2285	221.628543774713	149
0	2308	223.267817108309	150
0	2331	224.444495997507	151
0	2347	225.753621897776	152
0	2370	227.237847471027	153
0	2393	228.542841445538	154
0	2395	230.017495615058	155
0	2418	231.09663408657	156
0	2425	233.089334958349	157
0	2445	234.500418703653	158
0	2464	235.937314564943	159
0	2466	237.29252395837	160
0	2481	239.266736587159	161
1	3	0.126198958082	0
1	3	0.126198958082	1
1	3	0.126198958082	2
1	3	0.126198958082	3
1	26	2.117465960799	4
1	26	2.117465960799	5
1	26	2.117465960799	6
1	26	2.117465960799	7
1	49	3.320897541596	8
1	49	3.320897541596	9
1	49	3.320897541596	10
1	49	3.320897541596	11
1	74	6.152534856253	12
1	74	6.152534856253	13
1	74	6.152534856253	14
1	74	6.152534856253	15
1	93	7.822051508489	16
1	93	7.822051508489	17
1	93	7.822051508489	18
1	93	7.822051508489	19
1	109	9.299058926896	20
1	109	9.299058926896	21
1	109	9.299058926896	22
1	109	9.299058926896	23
1	136	13.817830847496	24
1	136	13.817830847496	25
1	136	13.817830847496	26
1	136	13.817830847496	27
1	159	15.305139496695	28
1	159	15.305139496695	29
1	159	15.305139496695	30
1	159	15.305139496695	31
1	182	16.971481315802	32
1	182	16.971481315802	33
1	182	16.971481315802	34
1	182	16.971481315802	35
1	205	18.068717374267	36
1	205	18.068717374267	37
1	205	18.068717374267	38
1	205	18.068717374267	39
1	228	19.066062378542	40
1	228	19.066062378542	41
1	228	19.066062378542	42
1	228	19.066062378542	43
1	249	22.275414889836	44
1	249	22.275414889836	45
1	249	22.275414889836	46
1	249	22.275414889836	47
1	272	23.390599364284	48
1	272	23.390599364284	49
1	272	23.390599364284	50
1	272	23.390599364284	51
1	295	28.305852504788	52
1	295	28.305852504788	53
1	295	28.305852504788	54
1	295	28.305852504788	55
1	314	29.930522227221	56
1	314	29.930522227221	57
1	314	29.930522227221	58
1	314	29.930522227221	59
1	337	31.131623250298	60
1	337	31.131623250298	61
1	337	31.131623250298	62
1	337	31.131623250298	63
1	359	34.065779817345	64
1	359	34.065779817345	65
1	359	34.065779817345	66
1	359	34.065779817345	67
1	368	37.583400411107	68
1	368	37.583400411107	69
1	368	37.583400411107	70
1	368	37.583400411107	71
1	391	38.658538967201	72
1	391	38.658538967201	73
1	391	38.658538967201	74
1	391	38.658538967201	75
1	416	41.442699634964	76
1	416	41.442699634964	77
1	416	41.442699634964	78
1	416	41.442699634964	79
1	435	42.998709722173	80
1	435	42.998709722173	81
1	435	42.998709722173	82
1	435	42.998709722173	83
1	460	46.276625475441	84
1	460	46.276625475441	85
1	460	46.276625475441	86
1	460	46.276625475441	87
1	483	48.19273754763	88
1	483	48.19273754763	89
1	483	48.19273754763	90
1	483	48.19273754763	91
1	498	49.436210488337	92
1	498	49.436210488337	93
1	498	49.436210488337	94
1	498	49.436210488337	95
1	521	51.090971938068	96
1	521	51.090971938068	97
1	521	51.090971938068	98
1	521	51.090971938068	99
1	546	54.110714282278	100
1	546	54.110714282278	101
1	546	54.110714282278	102
1	546	54.110714282278	103
1	571	56.751251829355	104
1	571	56.751251829355	105
1	571	56.751251829355	106
1	571	56.751251829355	107
1	594	58.043100863627	108
1	594	58.043100863627	109
1	594	58.043100863627	110
1	594	58.043100863627	111
1	613	59.426641767539	112
1	613	59.426641767539	113
1	613	59.426641767539	114
1	613	59.426641767539	115
1	633	61.324164076762	116
1	633	61.324164076762	117
1	633	61.324164076762	118
1	633	61.324164076762	119
1	655	63.886266179083	120
1	655	63.886266179083	121
1	655	63.886266179083	122
1	655	63.886266179083	123
1	678	65.082798515025	124
1	678	65.082798515025	125
1	678	65.082798515025	126
1	678	65.082798515025	127
1	701	66.954698137473	128
1	701	66.954698137473	129
1	701	66.954698137473	130
1	701	66.954698137473	131
1	724	68.5282934506	132
1	724	68.5282934506	133
1	724	68.5282934506	134
1	724	68.5282934506	135
1	747	69.67309108877	136
1	747	69.67309108877	137
1	747	69.67309108877	138
1	747	69.67309108877	139
1	772	72.487023915909	140
1	772	72.487023915909	141
1	772	72.487023915909	142
1	772	72.487023915909	143
1	795	73.750819098148	144
1	795	73.750819098148	145
1	795	73.750819098148	146
1	795	73.750819098148	147
1	814	75.241430763187	148
1	814	75.241430763187	149
1	814	75.241430763187	150
1	814	75.241430763187	151
1	837	76.470436742961	152
1	837	76.470436742961	153
1	837	76.470436742961	154
1	837	76.470436742961	155
1	849	79.966065876775	156
1	849	79.966065876775	157
1	849	79.966065876775	158
1	849	79.966065876775	159
1	872	81.565009546036	160
1	872	81.565009546036	161
1	872	81.565009546036	162
1	872	81.565009546036	163
1	892	82.95979099237	164
1	892	82.95979099237	165
1	892	82.95979099237	166
1	892	82.95979099237	167
1	915	84.857825161825	168
1	915	84.857825161825	169
1	915	84.857825161825	170
1	915	84.857825161825	171
1	938	86.852842998449	172
1	938	86.852842998449	173
1	938	86.852842998449	174
1	938	86.852842998449	175
1	961	88.404517398068	176
1	961	88.404517398068	177
1	961	88.404517398068	178
1	961	88.404517398068	179
1	984	89.694078533764	180
1	984	89.694078533764	181
1	984	89.694078533764	182
1	984	89.694078533764	183
1	1004	91.608699119102	184
1	1004	91.608699119102	185
1	1004	91.608699119102	186
1	1004	91.608699119102	187
1	1023	92.837328741681	188
1	1023	92.837328741681	189
1	1023	92.837328741681	190
1	1023	92.837328741681	191
1	1032	95.982106704202	192
1	1032	95.982106704202	193
1	1032	95.982106704202	194
1	1032	95.982106704202	195
1	1057	98.686672161051	196
1	1057	98.686672161051	197
1	1057	98.686672161051	198
1	1057	98.686672161051	199
1	1080	99.740703363999	200
1	1080	99.740703363999	201
1	1080	99.740703363999	202
1	1080	99.740703363999	203
1	1103	101.087313228258	204
1	1103	101.087313228258	205
1	1103	101.087313228258	206
1	1103	101.087313228258	207
1	1126	102.722579296522	208
1	1126	102.722579296522	209
1	1126	102.722579296522	210
1	1126	102.722579296522	211
1	1149	104.549199896691	212
1	1149	104.549199896691	213
1	1149	104.549199896691	214
1	1149	104.549199896691	215
1	1172	106.007029023267	216
1	1172	106.007029023267	217
1	1172	106.007029023267	218
1	1172	106.007029023267	219
1	1195	110.245511342594	220
1	1195	110.245511342594	221
1	1195	110.245511342594	222
1	1195	110.245511342594	223
1	1218	111.743548419381	224
1	1218	111.743548419381	225
1	1218	111.743548419381	226
1	1218	111.743548419381	227
1	1243	114.480684441807	228
1	1243	114.480684441807	229
1	1243	114.480684441807	230
1	1243	114.480684441807	231
1	1268	117.765836153436	232
1	1268	117.765836153436	233
1	1268	117.765836153436	234
1	1268	117.765836153436	235
1	1297	123.682995949681	236
1	1297	123.682995949681	237
1	1297	123.682995949681	238
1	1297	123.682995949681	239
1	1320	125.529439576165	240
1	1320	125.529439576165	241
1	1320	125.529439576165	242
1	1320	125.529439576165	243
1	1343	126.723732763417	244
1	1343	126.723732763417	245
1	1343	126.723732763417	246
1	1343	126.723732763417	247
1	1362	131.846282843259	248
1	1362	131.846282843259	249
1	1362	131.846282843259	250
1	1362	131.846282843259	251
1	1385	133.580708717914	252
1	1385	133.580708717914	253
1	1385	133.580708717914	254
1	1385	133.580708717914	255
1	1410	136.256067445667	256
1	1410	136.256067445667	257
1	1410	136.256067445667	258
1	1410	136.256067445667	259
1	1433	137.713773154468	260
1	1433	137.713773154468	261
1	1433	137.713773154468	262
1	1433	137.713773154468	263
1	1456	139.166209678159	264
1	1456	139.166209678159	265
1	1456	139.166209678159	266
1	1456	139.166209678159	267
1	1481	141.413783211743	268
1	1481	141.413783211743	269
1	1481	141.413783211743	270
1	1481	141.413783211743	271
1	1504	143.05124110419	272
1	1504	143.05124110419	273
1	1504	143.05124110419	274
1	1504	143.05124110419	275
1	1533	148.075038451898	276
1	1533	148.075038451898	277
1	1533	148.075038451898	278
1	1533	148.075038451898	279
1	1556	149.787445942063	280
1	1556	149.787445942063	281
1	1556	149.787445942063	282
1	1556	149.787445942063	283
1	1579	150.967889064885	284
1	1579	150.967889064885	285
1	1579	150.967889064885	286
1	1579	150.967889064885	287
1	1597	152.351552766674	288
1	1597	152.351552766674	289
1	1597	152.351552766674	290
1	1597	152.351552766674	291
1	1624	156.481701152435	292
1	1624	156.481701152435	293
1	1624	156.481701152435	294
1	1624	156.481701152435	295
1	1649	159.360349856198	296
1	1649	159.360349856198	297
1	1649	159.360349856198	298
1	1649	159.360349856198	299
1	1672	160.87639711957	300
1	1672	160.87639711957	301
1	1672	160.87639711957	302
1	1672	160.87639711957	303
1	1697	163.764777343716	304
1	1697	163.764777343716	305
1	1697	163.764777343716	306
1	1697	163.764777343716	307
1	1720	165.4780797443	308
1	1720	165.4780797443	309
1	1720	165.4780797443	310
1	1720	165.4780797443	311
1	1745	168.236102546734	312
1	1745	168.236102546734	313
1	1745	168.236102546734	314
1	1745	168.236102546734	315
1	1770	171.51807243841	316
1	1770	171.51807243841	317
1	1770	171.51807243841	318
1	1770	171.51807243841	319
1	1790	173.311212744185	320
1	1790	173.311212744185	321
1	1790	173.311212744185	322
1	1790	173.311212744185	323
1	1813	175.315256308011	324
1	1813	175.315256308011	325
1	1813	175.315256308011	326
1	1813	175.315256308011	327
1	1838	178.91766498507	328
1	1838	178.91766498507	329
1	1838	178.91766498507	330
1	1838	178.91766498507	331
1	1863	181.723596702275	332
1	1863	181.723596702275	333
1	1863	181.723596702275	334
1	1863	181.723596702275	335
1	1882	183.453707179114	336
1	1882	183.453707179114	337
1	1882	183.453707179114	338
1	1882	183.453707179114	339
1	1901	184.625315872906	340
1	1901	184.625315872906	341
1	1901	184.625315872906	342
1	1901	184.625315872906	343
1	1924	185.877870192062	344
1	1924	185.877870192062	345
1	1924	185.877870192062	346
1	1924	185.877870192062	347
1	1947	187.701447047857	348
1	1947	187.701447047857	349
1	1947	187.701447047857	350
1	1947	187.701447047857	351
1	1970	191.911497235053	352
1	1970	191.911497235053	353
1	1970	191.911497235053	354
1	1970	191.911497235053	355
1	1993	193.294598022807	356
1	1993	193.294598022807	357
1	1993	193.294598022807	358
1	1993	193.294598022807	359
1	2012	195.042271051167	360
1	2012	195.042271051167	361
1	2012	195.042271051167	362
1	2012	195.042271051167	363
1	2035	199.101033585438	364
1	2035	199.101033585438	365
1	2035	199.101033585438	366
1	2035	199.101033585438	367
1	2062	204.497769697732	368
1	2062	204.497769697732	369
1	2062	204.497769697732	370
1	2062	204.497769697732	371
1	2072	205.552410020355	372
1	2072	205.552410020355	373
1	2072	205.552410020355	374
1	2072	205.552410020355	375
1	2095	206.627916726605	376
1	2095	206.627916726605	377
1	2095	206.627916726605	378
1	2095	206.627916726605	379
1	2118	208.34242259898	380
1	2118	208.34242259898	381
1	2118	208.34242259898	382
1	2118	208.34242259898	383
1	2143	211.338035952212	384
1	2143	211.338035952212	385
1	2143	211.338035952212	386
1	2143	211.338035952212	387
1	2162	212.877085259799	388
1	2162	212.877085259799	389
1	2162	212.877085259799	390
1	2162	212.877085259799	391
1	2185	214.147523609161	392
1	2185	214.147523609161	393
1	2185	214.147523609161	394
1	2185	214.147523609161	395
1	2208	215.380663756639	396
1	2208	215.380663756639	397
1	2208	215.380663756639	398
1	2208	215.380663756639	399
1	2231	216.719016586838	400
1	2231	216.719016586838	401
1	2231	216.719016586838	402
1	2231	216.719016586838	403
1	2241	218.640801556882	404
1	2241	218.640801556882	405
1	2241	218.640801556882	406
1	2241	218.640801556882	407
1	2264	220.269692265511	408
1	2264	220.269692265511	409
1	2264	220.269692265511	410
1	2264	220.269692265511	411
1	2287	221.642047779947	412
1	2287	221.642047779947	413
1	2287	221.642047779947	414
1	2287	221.642047779947	415
1	2310	223.282778106145	416
1	2310	223.282778106145	417
1	2310	223.282778106145	418
1	2310	223.282778106145	419
1	2333	224.465816244673	420
1	2333	224.465816244673	421
1	2333	224.465816244673	422
1	2333	224.465816244673	423
1	2349	225.783899529217	424
1	2349	225.783899529217	425
1	2349	225.783899529217	426
1	2349	225.783899529217	427
1	2372	227.268322684265	428
1	2372	227.268322684265	429
1	2372	227.268322684265	430
1	2372	227.268322684265	431
1	2397	230.049402092523	432
1	2397	230.049402092523	433
1	2397	230.049402092523	434
1	2397	230.049402092523	435
1	2420	231.113948897744	436
1	2420	231.113948897744	437
1	2420	231.113948897744	438
1	2420	231.113948897744	439
1	2427	233.120858948196	440
1	2427	233.120858948196	441
1	2427	233.120858948196	442
1	2427	233.120858948196	443
1	2447	234.511583600393	444
1	2447	234.511583600393	445
1	2447	234.511583600393	446
1	2447	234.511583600393	447
1	2468	237.303833843305	448
1	2468	237.303833843305	449
1	2468	237.303833843305	450
1	2468	237.303833843305	451
2	8	0.205690100955	0
2	8	0.205690100955	1
2	8	0.205690100955	2
2	32	2.138566763985	3
2	32	2.138566763985	4
2	32	2.138566763985	5
2	54	3.331295920388	6
2	54	3.331295920388	7
2	54	3.331295920388	8
2	103	7.870317581315	9
2	103	7.870317581315	10
2	103	7.870317581315	11
2	114	9.31064570268	12
2	114	9.31064570268	13
2	114	9.31064570268	14
2	141	13.835613284688	15
2	141	13.835613284688	16
2	141	13.835613284688	17
2	166	15.329040209029	18
2	166	15.329040209029	19
2	166	15.329040209029	20
2	195	17.009926365481	21
2	195	17.009926365481	22
2	195	17.009926365481	23
2	211	18.088482031922	24
2	211	18.088482031922	25
2	211	18.088482031922	26
2	234	19.078401495599	27
2	234	19.078401495599	28
2	234	19.078401495599	29
2	257	22.319731845107	30
2	257	22.319731845107	31
2	257	22.319731845107	32
2	279	23.414537508719	33
2	279	23.414537508719	34
2	279	23.414537508719	35
2	325	29.954029783603	36
2	325	29.954029783603	37
2	325	29.954029783603	38
2	351	31.18637885145	39
2	351	31.18637885145	40
2	351	31.18637885145	41
2	379	37.608002355577	42
2	379	37.608002355577	43
2	379	37.608002355577	44
2	397	38.678130384687	45
2	397	38.678130384687	46
2	397	38.678130384687	47
2	423	41.462095407373	48
2	423	41.462095407373	49
2	423	41.462095407373	50
2	441	43.010647951748	51
2	441	43.010647951748	52
2	441	43.010647951748	53
2	466	46.295230905455	54
2	466	46.295230905455	55
2	466	46.295230905455	56
2	512	49.483828923428	57
2	512	49.483828923428	58
2	512	49.483828923428	59
2	526	51.116549877327	60
2	526	51.116549877327	61
2	526	51.116549877327	62
2	552	54.132256205903	63
2	552	54.132256205903	64
2	552	54.132256205903	65
2	585	56.788148695017	66
2	585	56.788148695017	67
2	585	56.788148695017	68
2	604	58.074353073063	69
2	604	58.074353073063	70
2	604	58.074353073063	71
2	618	59.44038535478	72
2	618	59.44038535478	73
2	618	59.44038535478	74
2	643	61.353247360966	75
2	643	61.353247360966	76
2	643	61.353247360966	77
2	660	63.903407047881	78
2	660	63.903407047881	79
2	660	63.903407047881	80
2	683	65.095033343686	81
2	683	65.095033343686	82
2	683	65.095033343686	83
2	706	66.967669662541	84
2	706	66.967669662541	85
2	706	66.967669662541	86
2	738	68.572121102701	87
2	738	68.572121102701	88
2	738	68.572121102701	89
2	759	69.702921227028	90
2	759	69.702921227028	91
2	759	69.702921227028	92
2	783	72.512789986546	93
2	783	72.512789986546	94
2	783	72.512789986546	95
2	808	73.790962735604	96
2	808	73.790962735604	97
2	808	73.790962735604	98
2	820	75.257027750633	99
2	820	75.257027750633	100
2	820	75.257027750633	101
2	860	79.990125195136	102
2	860	79.990125195136	103
2	860	79.990125195136	104
2	877	81.589876190381	105
2	877	81.589876190381	106
2	877	81.589876190381	107
2	909	83.015992883362	108
2	909	83.015992883362	109
2	909	83.015992883362	110
2	920	84.869097327535	111
2	920	84.869097327535	112
2	920	84.869097327535	113
2	951	86.888228333943	114
2	951	86.888228333943	115
2	951	86.888228333943	116
2	967	88.426236581341	117
2	967	88.426236581341	118
2	967	88.426236581341	119
2	989	89.708719445424	120
2	989	89.708719445424	121
2	989	89.708719445424	122
2	1009	91.62804097218	123
2	1009	91.62804097218	124
2	1009	91.62804097218	125
2	1037	96.000563066381	126
2	1037	96.000563066381	127
2	1037	96.000563066381	128
2	1062	98.698511188588	129
2	1062	98.698511188588	130
2	1062	98.698511188588	131
2	1085	99.756497765142	132
2	1085	99.756497765142	133
2	1085	99.756497765142	134
2	1108	101.117731808359	135
2	1108	101.117731808359	136
2	1108	101.117731808359	137
2	1133	102.746587712447	138
2	1133	102.746587712447	139
2	1133	102.746587712447	140
2	1166	104.608348593581	141
2	1166	104.608348593581	142
2	1166	104.608348593581	143
2	1208	110.300778712593	144
2	1208	110.300778712593	145
2	1208	110.300778712593	146
2	1224	111.754610041718	147
2	1224	111.754610041718	148
2	1224	111.754610041718	149
2	1248	114.496637525924	150
2	1248	114.496637525924	151
2	1248	114.496637525924	152
2	1277	117.793870725835	153
2	1277	117.793870725835	154
2	1277	117.793870725835	155
2	1302	123.694139573529	156
2	1302	123.694139573529	157
2	1302	123.694139573529	158
2	1333	125.567161803402	159
2	1333	125.567161803402	160
2	1333	125.567161803402	161
2	1373	131.870589201988	162
2	1373	131.870589201988	163
2	1373	131.870589201988	164
2	1396	133.604132998577	165
2	1396	133.604132998577	166
2	1396	133.604132998577	167
2	1417	136.275194927363	168
2	1417	136.275194927363	169
2	1417	136.275194927363	170
2	1438	137.753736822259	171
2	1438	137.753736822259	172
2	1438	137.753736822259	173
2	1461	139.177127099324	174
2	1461	139.177127099324	175
2	1461	139.177127099324	176
2	1486	141.429565685042	177
2	1486	141.429565685042	178
2	1486	141.429565685042	179
2	1509	143.064047403837	180
2	1509	143.064047403837	181
2	1509	143.064047403837	182
2	1538	148.085179477237	183
2	1538	148.085179477237	184
2	1538	148.085179477237	185
2	1561	149.802670235556	186
2	1561	149.802670235556	187
2	1561	149.802670235556	188
2	1585	150.98740098428	189
2	1585	150.98740098428	190
2	1585	150.98740098428	191
2	1602	152.363590888274	192
2	1602	152.363590888274	193
2	1602	152.363590888274	194
2	1630	156.505998818929	195
2	1630	156.505998818929	196
2	1630	156.505998818929	197
2	1654	159.380513111046	198
2	1654	159.380513111046	199
2	1654	159.380513111046	200
2	1677	160.890540624285	201
2	1677	160.890540624285	202
2	1677	160.890540624285	203
2	1703	163.794516754406	204
2	1703	163.794516754406	205
2	1703	163.794516754406	206
2	1726	165.498603729976	207
2	1726	165.498603729976	208
2	1726	165.498603729976	209
2	1750	168.2548958146	210
2	1750	168.2548958146	211
2	1750	168.2548958146	212
2	1784	171.591463463432	213
2	1784	171.591463463432	214
2	1784	171.591463463432	215
2	1803	173.346589138778	216
2	1803	173.346589138778	217
2	1803	173.346589138778	218
2	1818	175.325572216526	219
2	1818	175.325572216526	220
2	1818	175.325572216526	221
2	1844	178.932275819207	222
2	1844	178.932275819207	223
2	1844	178.932275819207	224
2	1869	181.740598611835	225
2	1869	181.740598611835	226
2	1869	181.740598611835	227
2	1892	183.478083295579	228
2	1892	183.478083295579	229
2	1892	183.478083295579	230
2	1908	184.636971744365	231
2	1908	184.636971744365	232
2	1908	184.636971744365	233
2	1937	185.912575529246	234
2	1937	185.912575529246	235
2	1937	185.912575529246	236
2	1981	191.950197584696	237
2	1981	191.950197584696	238
2	1981	191.950197584696	239
2	2003	193.319491366178	240
2	2003	193.319491366178	241
2	2003	193.319491366178	242
2	2025	195.07682566576	243
2	2025	195.07682566576	244
2	2025	195.07682566576	245
2	2040	199.118209234741	246
2	2040	199.118209234741	247
2	2040	199.118209234741	248
2	2077	205.577233034515	249
2	2077	205.577233034515	250
2	2077	205.577233034515	251
2	2100	206.640606175584	252
2	2100	206.640606175584	253
2	2100	206.640606175584	254
2	2131	208.377123572801	255
2	2131	208.377123572801	256
2	2131	208.377123572801	257
2	2152	211.369387238634	258
2	2152	211.369387238634	259
2	2152	211.369387238634	260
2	2176	212.902651159711	261
2	2176	212.902651159711	262
2	2176	212.902651159711	263
2	2192	214.167087038428	264
2	2192	214.167087038428	265
2	2192	214.167087038428	266
2	2221	215.415115388327	267
2	2221	215.415115388327	268
2	2221	215.415115388327	269
2	2246	218.659525012567	270
2	2246	218.659525012567	271
2	2246	218.659525012567	272
2	2269	220.281130744857	273
2	2269	220.281130744857	274
2	2269	220.281130744857	275
2	2300	221.688536987236	276
2	2300	221.688536987236	277
2	2300	221.688536987236	278
2	2317	223.303206640785	279
2	2317	223.303206640785	280
2	2317	223.303206640785	281
2	2343	224.500279230254	282
2	2343	224.500279230254	283
2	2343	224.500279230254	284
2	2359	225.812446146957	285
2	2359	225.812446146957	286
2	2359	225.812446146957	287
2	2378	227.29423453142	288
2	2378	227.29423453142	289
2	2378	227.29423453142	290
2	2405	230.077668461965	291
2	2405	230.077668461965	292
2	2405	230.077668461965	293
2	2432	233.136201935345	294
2	2432	233.136201935345	295
2	2432	233.136201935345	296
2	2452	234.524621710988	297
2	2452	234.524621710988	298
2	2452	234.524621710988	299
2	2473	237.335856036678	300
2	2473	237.335856036678	301
2	2473	237.335856036678	302
3	12	0.217751247295	0
3	12	0.217751247295	1
3	12	0.217751247295	2
3	43	2.193002594483	3
3	43	2.193002594483	4
3	43	2.193002594483	5
3	64	3.352398560697	6
3	64	3.352398560697	7
3	64	3.352398560697	8
3	87	6.221679371396	9
3	87	6.221679371396	10
3	87	6.221679371396	11
3	126	9.357539804428	12
3	126	9.357539804428	13
3	126	9.357539804428	14
3	150	13.862084230291	15
3	150	13.862084230291	16
3	150	13.862084230291	17
3	176	15.340500201167	18
3	176	15.340500201167	19
3	176	15.340500201167	20
3	196	17.010637527314	21
3	196	17.010637527314	22
3	196	17.010637527314	23
3	222	18.157712062577	24
3	222	18.157712062577	25
3	222	18.157712062577	26
3	261	22.338173096113	27
3	261	22.338173096113	28
3	261	22.338173096113	29
3	305	28.329189802532	30
3	305	28.329189802532	31
3	305	28.329189802532	32
3	331	29.991074888803	33
3	331	29.991074888803	34
3	331	29.991074888803	35
3	347	31.162549971744	36
3	347	31.162549971744	37
3	347	31.162549971744	38
3	385	37.630823754197	39
3	385	37.630823754197	40
3	385	37.630823754197	41
3	405	38.689343455863	42
3	405	38.689343455863	43
3	405	38.689343455863	44
3	452	43.03544159342	45
3	452	43.03544159342	46
3	452	43.03544159342	47
3	471	46.304639472271	48
3	471	46.304639472271	49
3	471	46.304639472271	50
3	511	49.474145003932	51
3	511	49.474145003932	52
3	511	49.474145003932	53
3	531	51.129617891596	54
3	531	51.129617891596	55
3	531	51.129617891596	56
3	558	54.138663001122	57
3	558	54.138663001122	58
3	558	54.138663001122	59
3	584	56.787649928679	60
3	584	56.787649928679	61
3	584	56.787649928679	62
3	627	59.456679294116	63
3	627	59.456679294116	64
3	627	59.456679294116	65
3	644	61.356306021644	66
3	644	61.356306021644	67
3	644	61.356306021644	68
3	669	63.937534215179	69
3	669	63.937534215179	70
3	669	63.937534215179	71
3	695	65.124754612133	72
3	695	65.124754612133	73
3	695	65.124754612133	74
3	716	66.992762070467	75
3	716	66.992762070467	76
3	716	66.992762070467	77
3	737	68.570151623806	78
3	737	68.570151623806	79
3	737	68.570151623806	80
3	758	69.699747116672	81
3	758	69.699747116672	82
3	758	69.699747116672	83
3	789	72.525286121408	84
3	789	72.525286121408	85
3	789	72.525286121408	86
3	831	75.273162300805	87
3	831	75.273162300805	88
3	831	75.273162300805	89
3	863	79.992369832649	90
3	863	79.992369832649	91
3	863	79.992369832649	92
3	881	81.599980373795	93
3	881	81.599980373795	94
3	881	81.599980373795	95
3	903	83.002110262495	96
3	903	83.002110262495	97
3	903	83.002110262495	98
3	929	84.882166621777	99
3	929	84.882166621777	100
3	929	84.882166621777	101
3	955	86.908728086377	102
3	955	86.908728086377	103
3	955	86.908728086377	104
3	972	88.43611981281	105
3	972	88.43611981281	106
3	972	88.43611981281	107
3	993	89.737319611267	108
3	993	89.737319611267	109
3	993	89.737319611267	110
3	1041	96.012259005319	111
3	1041	96.012259005319	112
3	1041	96.012259005319	113
3	1074	98.744281360087	114
3	1074	98.744281360087	115
3	1074	98.744281360087	116
3	1097	99.773360865291	117
3	1097	99.773360865291	118
3	1097	99.773360865291	119
3	1117	101.139434414913	120
3	1117	101.139434414913	121
3	1117	101.139434414913	122
3	1143	102.764897204791	123
3	1143	102.764897204791	124
3	1143	102.764897204791	125
3	1162	104.595473510525	126
3	1162	104.595473510525	127
3	1162	104.595473510525	128
3	1183	106.040610842692	129
3	1183	106.040610842692	130
3	1183	106.040610842692	131
3	1212	110.323202887468	132
3	1212	110.323202887468	133
3	1212	110.323202887468	134
3	1235	111.779430803261	135
3	1235	111.779430803261	136
3	1235	111.779430803261	137
3	1254	114.520457695869	138
3	1254	114.520457695869	139
3	1254	114.520457695869	140
3	1285	117.816635134148	141
3	1285	117.816635134148	142
3	1285	117.816635134148	143
3	1314	123.746620703405	144
3	1314	123.746620703405	145
3	1314	123.746620703405	146
3	1334	125.568565208339	147
3	1334	125.568565208339	148
3	1334	125.568565208339	149
3	1376	131.87869641367	150
3	1376	131.87869641367	151
3	1376	131.87869641367	152
3	1395	133.603964032383	153
3	1395	133.603964032383	154
3	1395	133.603964032383	155
3	1427	136.308606949128	156
3	1427	136.308606949128	157
3	1427	136.308606949128	158
3	1443	137.765485445359	159
3	1443	137.765485445359	160
3	1443	137.765485445359	161
3	1465	139.190025799185	162
3	1465	139.190025799185	163
3	1465	139.190025799185	164
3	1490	141.440455744612	165
3	1490	141.440455744612	166
3	1490	141.440455744612	167
3	1515	143.074752355602	168
3	1515	143.074752355602	169
3	1515	143.074752355602	170
3	1550	148.127621465668	171
3	1550	148.127621465668	172
3	1550	148.127621465668	173
3	1566	149.818033438911	174
3	1566	149.818033438911	175
3	1566	149.818033438911	176
3	1591	151.006363144954	177
3	1591	151.006363144954	178
3	1591	151.006363144954	179
3	1607	152.379498910317	180
3	1607	152.379498910317	181
3	1607	152.379498910317	182
3	1638	156.521544249553	183
3	1638	156.521544249553	184
3	1638	156.521544249553	185
3	1659	159.395433418425	186
3	1659	159.395433418425	187
3	1659	159.395433418425	188
3	1685	160.918141931083	189
3	1685	160.918141931083	190
3	1685	160.918141931083	191
3	1714	163.822288460079	192
3	1714	163.822288460079	193
3	1714	163.822288460079	194
3	1733	165.513906313458	195
3	1733	165.513906313458	196
3	1733	165.513906313458	197
3	1754	168.265525603242	198
3	1754	168.265525603242	199
3	1754	168.265525603242	200
3	1780	171.545670847423	201
3	1780	171.545670847423	202
3	1780	171.545670847423	203
3	1807	173.356614763312	204
3	1807	173.356614763312	205
3	1807	173.356614763312	206
3	1828	175.34358846607	207
3	1828	175.34358846607	208
3	1828	175.34358846607	209
3	1855	178.951693573534	210
3	1855	178.951693573534	211
3	1855	178.951693573534	212
3	1918	184.651204095451	213
3	1918	184.651204095451	214
3	1918	184.651204095451	215
3	1941	185.93353690641	216
3	1941	185.93353690641	217
3	1941	185.93353690641	218
3	1960	187.758595065144	219
3	1960	187.758595065144	220
3	1960	187.758595065144	221
3	1987	191.963599754773	222
3	1987	191.963599754773	223
3	1987	191.963599754773	224
3	2052	199.147028295449	225
3	2052	199.147028295449	226
3	2052	199.147028295449	227
3	2084	205.593896933047	228
3	2084	205.593896933047	229
3	2084	205.593896933047	230
3	2109	206.664935911981	231
3	2109	206.664935911981	232
3	2109	206.664935911981	233
3	2132	208.38184718002	234
3	2132	208.38184718002	235
3	2132	208.38184718002	236
3	2175	212.902294510899	237
3	2175	212.902294510899	238
3	2175	212.902294510899	239
3	2202	214.184311459999	240
3	2202	214.184311459999	241
3	2202	214.184311459999	242
3	2225	215.434993880991	243
3	2225	215.434993880991	244
3	2225	215.434993880991	245
3	2250	218.671782940196	246
3	2250	218.671782940196	247
3	2250	218.671782940196	248
3	2273	220.305117275237	249
3	2273	220.305117275237	250
3	2273	220.305117275237	251
3	2304	221.721981791673	252
3	2304	221.721981791673	253
3	2304	221.721981791673	254
3	2327	223.331580260592	255
3	2327	223.331580260592	256
3	2327	223.331580260592	257
3	2360	225.818612309552	258
3	2360	225.818612309552	259
3	2360	225.818612309552	260
3	2389	227.323054815752	261
3	2389	227.323054815752	262
3	2389	227.323054815752	263
3	2414	230.093277916376	264
3	2414	230.093277916376	265
3	2414	230.093277916376	266
3	2441	233.175684962603	267
3	2441	233.175684962603	268
3	2441	233.175684962603	269
3	2477	237.347377244471	270
3	2477	237.347377244471	271
3	2477	237.347377244471	272
4	15	0.227751247295	0
4	46	2.203002594483	1
4	90	6.231679371396	2
4	129	9.367539804428	3
4	154	13.872084230291	4
4	202	17.020637527314	5
4	264	22.348173096113	6
4	334	30.001074888803	7
4	350	31.172549971744	8
4	388	37.640823754197	9
4	477	46.314639472271	10
4	515	49.484145003932	11
4	588	56.797649928679	12
4	630	59.466679294116	13
4	650	61.366306021644	14
4	672	63.947534215179	15
4	721	67.002762070467	16
4	741	68.580151623806	17
4	764	69.709747116672	18
4	792	72.535286121408	19
4	834	75.283162300805	20
4	869	80.002369832649	21
4	908	83.012110262495	22
4	933	84.892166621777	23
4	958	86.918728086377	24
4	979	88.44611981281	25
4	997	89.747319611267	26
4	1045	96.022259005319	27
4	1077	98.754281360087	28
4	1100	99.783360865291	29
4	1120	101.149434414913	30
4	1146	102.774897204791	31
4	1238	111.789430803261	32
4	1263	114.530457695869	33
4	1288	117.826635134148	34
4	1340	125.578565208339	35
4	1382	131.88869641367	36
4	1430	136.318606949128	37
4	1450	137.775485445359	38
4	1468	139.200025799185	39
4	1494	141.450455744612	40
4	1553	148.137621465668	41
4	1573	149.828033438911	42
4	1594	151.016363144954	43
4	1613	152.389498910317	44
4	1666	159.405433418425	45
4	1692	160.928141931083	46
4	1717	163.832288460079	47
4	1757	168.275525603242	48
4	1783	171.555670847423	49
4	1810	173.366614763312	50
4	1833	175.35358846607	51
4	1944	185.94353690641	52
4	1990	191.973599754773	53
4	2055	199.157028295449	54
4	2087	205.603896933047	55
4	2113	206.674935911981	56
4	2138	208.39184718002	57
4	2179	212.912294510899	58
4	2205	214.194311459999	59
4	2253	218.681782940196	60
4	2307	221.731981791673	61
4	2330	223.341580260592	62
4	2367	225.828612309552	63
4	2392	227.333054815752	64
4	2417	230.103277916376	65
4	2444	233.185684962603	66
5	16	0.231991012083	0
5	16	0.231991012083	1
5	16	0.231991012083	2
5	16	0.231991012083	3
5	35	2.14850032361	4
5	35	2.14850032361	5
5	35	2.14850032361	6
5	35	2.14850032361	7
5	55	3.331786336882	8
5	55	3.331786336882	9
5	55	3.331786336882	10
5	55	3.331786336882	11
5	82	6.19610715268	12
5	82	6.19610715268	13
5	82	6.19610715268	14
5	82	6.19610715268	15
5	98	7.835445127368	16
5	98	7.835445127368	17
5	98	7.835445127368	18
5	98	7.835445127368	19
5	115	9.317594847326	20
5	115	9.317594847326	21
5	115	9.317594847326	22
5	115	9.317594847326	23
5	145	13.849297390765	24
5	145	13.849297390765	25
5	145	13.849297390765	26
5	145	13.849297390765	27
5	165	15.324912443928	28
5	165	15.324912443928	29
5	165	15.324912443928	30
5	165	15.324912443928	31
5	187	16.985871178415	32
5	187	16.985871178415	33
5	187	16.985871178415	34
5	187	16.985871178415	35
5	217	18.102635379105	36
5	217	18.102635379105	37
5	217	18.102635379105	38
5	217	18.102635379105	39
5	235	19.083160176684	40
5	235	19.083160176684	41
5	235	19.083160176684	42
5	235	19.083160176684	43
5	265	22.353584682276	44
5	265	22.353584682276	45
5	265	22.353584682276	46
5	265	22.353584682276	47
5	277	23.406166486273	48
5	277	23.406166486273	49
5	277	23.406166486273	50
5	277	23.406166486273	51
5	300	28.315978859532	52
5	300	28.315978859532	53
5	300	28.315978859532	54
5	300	28.315978859532	55
5	319	29.94103535053	56
5	319	29.94103535053	57
5	319	29.94103535053	58
5	319	29.94103535053	59
5	342	31.145441161982	60
5	342	31.145441161982	61
5	342	31.145441161982	62
5	342	31.145441161982	63
5	373	37.594946654106	64
5	373	37.594946654106	65
5	373	37.594946654106	66
5	373	37.594946654106	67
5	396	38.671209426386	68
5	396	38.671209426386	69
5	396	38.671209426386	70
5	396	38.671209426386	71
5	422	41.457294258469	72
5	422	41.457294258469	73
5	422	41.457294258469	74
5	422	41.457294258469	75
5	440	43.008861051241	76
5	440	43.008861051241	77
5	440	43.008861051241	78
5	440	43.008861051241	79
5	465	46.290876367177	80
5	465	46.290876367177	81
5	465	46.290876367177	82
5	465	46.290876367177	83
5	488	48.204771081936	84
5	488	48.204771081936	85
5	488	48.204771081936	86
5	488	48.204771081936	87
5	506	49.461794197767	88
5	506	49.461794197767	89
5	506	49.461794197767	90
5	506	49.461794197767	91
5	537	51.140045056256	92
5	537	51.140045056256	93
5	537	51.140045056256	94
5	537	51.140045056256	95
5	551	54.126180101509	96
5	551	54.126180101509	97
5	551	54.126180101509	98
5	551	54.126180101509	99
5	579	56.777454850706	100
5	579	56.777454850706	101
5	579	56.777454850706	102
5	579	56.777454850706	103
5	599	58.05355521002	104
5	599	58.05355521002	105
5	599	58.05355521002	106
5	599	58.05355521002	107
5	619	59.44561920214	108
5	619	59.44561920214	109
5	619	59.44561920214	110
5	619	59.44561920214	111
5	638	61.337014712588	112
5	638	61.337014712588	113
5	638	61.337014712588	114
5	638	61.337014712588	115
5	664	63.914969983199	116
5	664	63.914969983199	117
5	664	63.914969983199	118
5	664	63.914969983199	119
5	684	65.102596958542	120
5	684	65.102596958542	121
5	684	65.102596958542	122
5	684	65.102596958542	123
5	707	66.967705113455	124
5	707	66.967705113455	125
5	707	66.967705113455	126
5	707	66.967705113455	127
5	730	68.543592760472	128
5	730	68.543592760472	129
5	730	68.543592760472	130
5	730	68.543592760472	131
5	752	69.687656721888	132
5	752	69.687656721888	133
5	752	69.687656721888	134
5	752	69.687656721888	135
5	777	72.499261287699	136
5	777	72.499261287699	137
5	777	72.499261287699	138
5	777	72.499261287699	139
5	800	73.768605098967	140
5	800	73.768605098967	141
5	800	73.768605098967	142
5	800	73.768605098967	143
5	823	75.263054022865	144
5	823	75.263054022865	145
5	823	75.263054022865	146
5	823	75.263054022865	147
5	854	79.976347642779	148
5	854	79.976347642779	149
5	854	79.976347642779	150
5	854	79.976347642779	151
5	882	81.609512990333	152
5	882	81.609512990333	153
5	882	81.609512990333	154
5	882	81.609512990333	155
5	897	82.98236852404	156
5	897	82.98236852404	157
5	897	82.98236852404	158
5	897	82.98236852404	159
5	921	84.869729870564	160
5	921	84.869729870564	161
5	921	84.869729870564	162
5	921	84.869729870564	163
5	944	86.864170087649	164
5	944	86.864170087649	165
5	944	86.864170087649	166
5	944	86.864170087649	167
5	966	88.422693545462	168
5	966	88.422693545462	169
5	966	88.422693545462	170
5	966	88.422693545462	171
5	994	89.746344780541	172
5	994	89.746344780541	173
5	994	89.746344780541	174
5	994	89.746344780541	175
5	1013	91.654988289514	176
5	1013	91.654988289514	177
5	1013	91.654988289514	178
5	1013	91.654988289514	179
5	1042	96.016589630866	180
5	1042	96.016589630866	181
5	1042	96.016589630866	182
5	1042	96.016589630866	183
5	1067	98.733701957573	184
5	1067	98.733701957573	185
5	1067	98.733701957573	186
5	1067	98.733701957573	187
5	1086	99.759504934125	188
5	1086	99.759504934125	189
5	1086	99.759504934125	190
5	1086	99.759504934125	191
5	1112	101.127914170667	192
5	1112	101.127914170667	193
5	1112	101.127914170667	194
5	1112	101.127914170667	195
5	1132	102.744550497289	196
5	1132	102.744550497289	197
5	1132	102.744550497289	198
5	1132	102.744550497289	199
5	1157	104.585365208236	200
5	1157	104.585365208236	201
5	1157	104.585365208236	202
5	1157	104.585365208236	203
5	1177	106.017396593555	204
5	1177	106.017396593555	205
5	1177	106.017396593555	206
5	1177	106.017396593555	207
5	1203	110.28845149913	208
5	1203	110.28845149913	209
5	1203	110.28845149913	210
5	1203	110.28845149913	211
5	1225	111.763169107964	212
5	1225	111.763169107964	213
5	1225	111.763169107964	214
5	1225	111.763169107964	215
5	1253	114.51582431797	216
5	1253	114.51582431797	217
5	1253	114.51582431797	218
5	1253	114.51582431797	219
5	1276	117.788830312202	220
5	1276	117.788830312202	221
5	1276	117.788830312202	222
5	1276	117.788830312202	223
5	1303	123.697413013368	224
5	1303	123.697413013368	225
5	1303	123.697413013368	226
5	1303	123.697413013368	227
5	1325	125.544327486844	228
5	1325	125.544327486844	229
5	1325	125.544327486844	230
5	1325	125.544327486844	231
5	1349	126.747951851703	232
5	1349	126.747951851703	233
5	1349	126.747951851703	234
5	1349	126.747951851703	235
5	1367	131.856615304102	236
5	1367	131.856615304102	237
5	1367	131.856615304102	238
5	1367	131.856615304102	239
5	1390	133.591995773477	240
5	1390	133.591995773477	241
5	1390	133.591995773477	242
5	1390	133.591995773477	243
5	1416	136.275077624753	244
5	1416	136.275077624753	245
5	1416	136.275077624753	246
5	1416	136.275077624753	247
5	1442	137.76514340568	248
5	1442	137.76514340568	249
5	1442	137.76514340568	250
5	1442	137.76514340568	251
5	1469	139.201224804186	252
5	1469	139.201224804186	253
5	1469	139.201224804186	254
5	1469	139.201224804186	255
5	1497	141.456055006683	256
5	1497	141.456055006683	257
5	1497	141.456055006683	258
5	1497	141.456055006683	259
5	1510	143.06521409948	260
5	1510	143.06521409948	261
5	1510	143.06521409948	262
5	1510	143.06521409948	263
5	1545	148.107079000093	264
5	1545	148.107079000093	265
5	1545	148.107079000093	266
5	1545	148.107079000093	267
5	1565	149.814252280054	268
5	1565	149.814252280054	269
5	1565	149.814252280054	270
5	1565	149.814252280054	271
5	1610	152.383479893212	272
5	1610	152.383479893212	273
5	1610	152.383479893212	274
5	1610	152.383479893212	275
5	1629	156.499500664814	276
5	1629	156.499500664814	277
5	1629	156.499500664814	278
5	1629	156.499500664814	279
5	1658	159.392218742953	280
5	1658	159.392218742953	281
5	1658	159.392218742953	282
5	1658	159.392218742953	283
5	1684	160.914964642955	284
5	1684	160.914964642955	285
5	1684	160.914964642955	286
5	1684	160.914964642955	287
5	1706	163.802915624036	288
5	1706	163.802915624036	289
5	1706	163.802915624036	290
5	1706	163.802915624036	291
5	1732	165.513604332152	292
5	1732	165.513604332152	293
5	1732	165.513604332152	294
5	1732	165.513604332152	295
5	1758	168.287683336024	296
5	1758	168.287683336024	297
5	1758	168.287683336024	298
5	1758	168.287683336024	299
5	1775	171.535000128974	300
5	1775	171.535000128974	301
5	1775	171.535000128974	302
5	1775	171.535000128974	303
5	1795	173.331333612418	304
5	1795	173.331333612418	305
5	1795	173.331333612418	306
5	1795	173.331333612418	307
5	1819	175.332527616653	308
5	1819	175.332527616653	309
5	1819	175.332527616653	310
5	1819	175.332527616653	311
5	1847	178.939938766887	312
5	1847	178.939938766887	313
5	1847	178.939938766887	314
5	1847	178.939938766887	315
5	1868	181.73703787133	316
5	1868	181.73703787133	317
5	1868	181.73703787133	318
5	1868	181.73703787133	319
5	1887	183.465761873092	320
5	1887	183.465761873092	321
5	1887	183.465761873092	322
5	1887	183.465761873092	323
5	1907	184.636051460016	324
5	1907	184.636051460016	325
5	1907	184.636051460016	326
5	1907	184.636051460016	327
5	1930	185.895850610285	328
5	1930	185.895850610285	329
5	1930	185.895850610285	330
5	1930	185.895850610285	331
5	1955	187.729253641681	332
5	1955	187.729253641681	333
5	1955	187.729253641681	334
5	1955	187.729253641681	335
5	1975	191.936859600876	336
5	1975	191.936859600876	337
5	1975	191.936859600876	338
5	1975	191.936859600876	339
5	1998	193.308542787913	340
5	1998	193.308542787913	341
5	1998	193.308542787913	342
5	1998	193.308542787913	343
5	2017	195.056380442105	344
5	2017	195.056380442105	345
5	2017	195.056380442105	346
5	2017	195.056380442105	347
5	2041	199.120325237469	348
5	2041	199.120325237469	349
5	2041	199.120325237469	350
5	2041	199.120325237469	351
5	2088	205.634361670475	352
5	2088	205.634361670475	353
5	2088	205.634361670475	354
5	2088	205.634361670475	355
5	2101	206.64361885604	356
5	2101	206.64361885604	357
5	2101	206.64361885604	358
5	2101	206.64361885604	359
5	2126	208.36426951641	360
5	2126	208.36426951641	361
5	2126	208.36426951641	362
5	2126	208.36426951641	363
5	2151	211.365536037159	364
5	2151	211.365536037159	365
5	2151	211.365536037159	366
5	2151	211.365536037159	367
5	2168	212.890885605007	368
5	2168	212.890885605007	369
5	2168	212.890885605007	370
5	2168	212.890885605007	371
5	2191	214.166661180803	372
5	2191	214.166661180803	373
5	2191	214.166661180803	374
5	2191	214.166661180803	375
5	2214	215.401174437363	376
5	2214	215.401174437363	377
5	2214	215.401174437363	378
5	2214	215.401174437363	379
5	2254	218.710656339745	380
5	2254	218.710656339745	381
5	2254	218.710656339745	382
5	2254	218.710656339745	383
5	2274	220.313739936359	384
5	2274	220.313739936359	385
5	2274	220.313739936359	386
5	2274	220.313739936359	387
5	2293	221.664232331789	388
5	2293	221.664232331789	389
5	2293	221.664232331789	390
5	2293	221.664232331789	391
5	2316	223.300464069016	392
5	2316	223.300464069016	393
5	2316	223.300464069016	394
5	2316	223.300464069016	395
5	2338	224.482571477919	396
5	2338	224.482571477919	397
5	2338	224.482571477919	398
5	2338	224.482571477919	399
5	2354	225.797910153514	400
5	2354	225.797910153514	401
5	2354	225.797910153514	402
5	2354	225.797910153514	403
5	2381	227.29754999766	404
5	2381	227.29754999766	405
5	2381	227.29754999766	406
5	2381	227.29754999766	407
5	2406	230.082881344476	408
5	2406	230.082881344476	409
5	2406	230.082881344476	410
5	2406	230.082881344476	411
5	2433	233.140924350343	412
5	2433	233.140924350343	413
5	2433	233.140924350343	414
5	2433	233.140924350343	415
5	2453	234.527030761042	416
5	2453	234.527030761042	417
5	2453	234.527030761042	418
5	2453	234.527030761042	419
6	21	0.260719248752	0
6	21	0.260719248752	1
6	31	2.132866871297	2
6	31	2.132866871297	3
6	63	3.347252723803	4
6	63	3.347252723803	5
6	79	6.172317315069	6
6	79	6.172317315069	7
6	116	9.317957984303	8
6	116	9.317957984303	9
6	151	13.867028491397	10
6	151	13.867028491397	11
6	164	15.319430391566	12
6	164	15.319430391566	13
6	188	16.986258501575	14
6	188	16.986258501575	15
6	210	18.078876851593	16
6	210	18.078876851593	17
6	233	19.076567990437	18
6	233	19.076567990437	19
6	254	22.288676608315	20
6	254	22.288676608315	21
6	278	23.406182252088	22
6	278	23.406182252088	23
6	306	28.330454469213	24
6	306	28.330454469213	25
6	324	29.953321411521	26
6	324	29.953321411521	27
6	374	37.603601959276	28
6	374	37.603601959276	29
6	406	38.698301464415	30
6	406	38.698301464415	31
6	421	41.453054328878	32
6	421	41.453054328878	33
6	446	43.020265136461	34
6	446	43.020265136461	35
6	478	46.330842355096	36
6	478	46.330842355096	37
6	489	48.211625274534	38
6	489	48.211625274534	39
6	503	49.450935841719	40
6	503	49.450935841719	41
6	527	51.124050783885	42
6	527	51.124050783885	43
6	557	54.136280602114	44
6	557	54.136280602114	45
6	576	56.762124267178	46
6	576	56.762124267178	47
6	605	58.084346558019	48
6	605	58.084346558019	49
6	673	63.947902669439	50
6	673	63.947902669439	51
6	685	65.102609783723	52
6	685	65.102609783723	53
6	715	66.983613659256	54
6	715	66.983613659256	55
6	729	68.540563182396	56
6	729	68.540563182396	57
6	753	69.694889671885	58
6	753	69.694889671885	59
6	778	72.504127179724	60
6	778	72.504127179724	61
6	801	73.774218205931	62
6	801	73.774218205931	63
6	819	75.252585082289	64
6	819	75.252585082289	65
6	842	76.481253040708	66
6	842	76.481253040708	67
6	855	79.981088673856	68
6	855	79.981088673856	69
6	902	82.994446538369	70
6	902	82.994446538369	71
6	930	84.884570825619	72
6	930	84.884570825619	73
6	943	86.863301726869	74
6	943	86.863301726869	75
6	976	88.442590470716	76
6	976	88.442590470716	77
6	1018	91.677090765046	78
6	1018	91.677090765046	79
6	1050	96.049408249217	80
6	1050	96.049408249217	81
6	1066	98.732712982819	82
6	1066	98.732712982819	83
6	1087	99.760210999847	84
6	1087	99.760210999847	85
6	1121	101.15261745232	86
6	1121	101.15261745232	87
6	1131	102.741201450562	88
6	1131	102.741201450562	89
6	1154	104.567421754575	90
6	1154	104.567421754575	91
6	1182	106.03160840981	92
6	1182	106.03160840981	93
6	1200	110.266737237946	94
6	1200	110.266737237946	95
6	1223	111.753835187171	96
6	1223	111.753835187171	97
6	1252	114.514038739057	98
6	1252	114.514038739057	99
6	1273	117.777971180433	100
6	1273	117.777971180433	101
6	1311	123.708486522187	102
6	1311	123.708486522187	103
6	1330	125.556768825076	104
6	1330	125.556768825076	105
6	1348	126.747376975644	106
6	1348	126.747376975644	107
6	1368	131.86178844958	108
6	1368	131.86178844958	109
6	1403	133.626073397836	110
6	1403	133.626073397836	111
6	1415	136.2703822652	112
6	1415	136.2703822652	113
6	1451	137.789700904108	114
6	1451	137.789700904108	115
6	1474	139.240952050794	116
6	1474	139.240952050794	117
6	1491	141.443441809566	118
6	1491	141.443441809566	119
6	1511	143.071870061712	120
6	1511	143.071870061712	121
6	1539	148.087492485332	122
6	1539	148.087492485332	123
6	1574	149.834424073299	124
6	1574	149.834424073299	125
6	1584	150.978206000555	126
6	1584	150.978206000555	127
6	1603	152.370355934401	128
6	1603	152.370355934401	129
6	1639	156.524270345916	130
6	1639	156.524270345916	131
6	1667	159.412668873198	132
6	1667	159.412668873198	133
6	1678	160.898209031891	134
6	1678	160.898209031891	135
6	1702	163.791583151964	136
6	1702	163.791583151964	137
6	1725	165.488736185791	138
6	1725	165.488736185791	139
6	1763	168.298637305567	140
6	1763	168.298637305567	141
6	1796	173.33242659742	142
6	1796	173.33242659742	143
6	1820	175.333723389033	144
6	1820	175.333723389033	145
6	1843	178.9291990759	146
6	1843	178.9291990759	147
6	1877	181.767390982523	148
6	1877	181.767390982523	149
6	1893	183.479920460924	150
6	1893	183.479920460924	151
6	1906	184.635483020928	152
6	1906	184.635483020928	153
6	1929	185.888599484998	154
6	1929	185.888599484998	155
6	1952	187.715427396501	156
6	1952	187.715427396501	157
6	1976	191.942221968679	158
6	1976	191.942221968679	159
6	2007	193.34059985319	160
6	2007	193.34059985319	161
6	2018	195.064108028866	162
6	2018	195.064108028866	163
6	2042	199.120642832519	164
6	2042	199.120642832519	165
6	2067	204.513868030012	166
6	2067	204.513868030012	167
6	2078	205.580825117136	168
6	2078	205.580825117136	169
6	2110	206.666189788719	170
6	2110	206.666189788719	171
6	2123	208.353821091151	172
6	2123	208.353821091151	173
6	2148	211.354705889021	174
6	2148	211.354705889021	175
6	2167	212.889660037166	176
6	2167	212.889660037166	177
6	2190	214.158133613955	178
6	2190	214.158133613955	179
6	2213	215.391191490549	180
6	2213	215.391191490549	181
6	2236	216.744542493976	182
6	2236	216.744542493976	183
6	2259	218.747394544692	184
6	2259	218.747394544692	185
6	2282	220.324574415246	186
6	2282	220.324574415246	187
6	2292	221.659280071826	188
6	2292	221.659280071826	189
6	2315	223.296673819817	190
6	2315	223.296673819817	191
6	2364	225.827911737068	192
6	2364	225.827911737068	193
6	2377	227.285349273548	194
6	2377	227.285349273548	195
6	2402	230.063967238091	196
6	2402	230.063967238091	197
6	2461	234.54594666136	198
6	2461	234.54594666136	199

