version 2
run General-2-20230921-21:33:47-5605
attr configname General
attr datetime 20230921-21:33:47
attr experiment General
attr inifile omnetpp.ini
attr iterationvars ""
attr iterationvarsf ""
attr measurement ""
attr network Network1
attr processid 5605
attr repetition 2
attr replication #2
attr resultdir results
attr runnumber 2
attr seedset 2
param Network1.node[*].transmissionTime "uniform(1s, 2s)"
param Network1.node[*].delayTime "uniform(0.01s, 0.2s)"
param Network1.node[*].processingTime exponential(0.01s)
param Network1.node[*].lossProbability 0.3

vector 0 Network1.node[0] txVector ETV
vector 1 Network1.node[1] txVector ETV
vector 2 Network1.node[3] txVector ETV
vector 3 Network1.node[2] txVector ETV
vector 4 Network1.node[4] txVector ETV
vector 5 Network1.node[5] rxVector ETV
0	1	0.092839031499	0
0	3	1.277921112972	1
0	21	3.20946197656	2
0	39	5.027688698629	3
0	49	6.997321106279	4
0	55	8.491610874207	5
0	57	10.259102050699	6
0	75	11.836410120846	7
0	77	12.955894920062	8
0	95	14.104459700426	9
0	113	15.572302192002	10
0	115	17.00383996197	11
0	133	18.892143708439	12
0	135	20.654073707312	13
0	153	22.586702268123	14
0	155	24.315200770525	15
0	173	25.670954394405	16
0	191	27.082700835093	17
0	209	28.961902865459	18
0	227	30.068475399184	19
0	245	31.986194120971	20
0	247	33.92244216429	21
0	249	35.386184772262	22
0	251	37.238473732508	23
0	253	38.451241103485	24
0	259	39.451364687662	25
0	261	40.966223854822	26
0	263	42.846214205976	27
0	265	44.631006128871	28
0	267	46.16082730472	29
0	277	47.434665174241	30
0	279	48.940076809394	31
0	297	50.27517147364	32
0	303	51.821044176835	33
0	321	53.756079904753	34
0	339	55.026433874172	35
0	357	56.770295904268	36
0	375	58.618757907086	37
0	377	60.094296877989	38
0	379	61.259164020437	39
0	397	63.086617370852	40
0	415	64.528005996736	41
0	433	66.310639014717	42
0	451	68.171666692028	43
0	469	70.037846933834	44
0	487	71.188333398446	45
0	489	72.933371658919	46
0	507	74.273034930013	47
0	525	75.664009192044	48
0	527	77.014732732222	49
0	529	78.378027378133	50
0	547	79.714320349059	51
0	565	81.549286203011	52
0	579	82.590532154095	53
0	593	84.022665254789	54
0	607	85.272234942781	55
0	617	86.846681284968	56
0	623	88.683424814388	57
0	641	90.533854645228	58
0	643	91.982268105976	59
0	661	93.07273608634	60
0	663	94.325982922704	61
0	665	96.136756126552	62
0	683	97.906590316461	63
0	685	99.802995085267	64
0	687	101.61796135131	65
0	705	103.446516515237	66
0	723	104.546481456157	67
0	733	106.025661782377	68
0	743	107.970536376598	69
0	753	109.690753022457	70
0	771	110.892652525116	71
0	777	112.754628983341	72
0	795	114.289371974548	73
0	797	116.130434568287	74
0	815	117.166219545775	75
0	833	118.301423295182	76
0	851	119.703617709703	77
0	869	121.34426537111	78
0	887	122.50869787253	79
0	901	123.622866473175	80
0	915	125.502101075384	81
0	933	127.442263382734	82
0	935	128.802289703642	83
0	937	129.839377501062	84
0	955	131.485358032877	85
0	969	133.414707209463	86
0	987	134.548212591805	87
0	1005	136.179051709142	88
0	1023	138.102114438791	89
0	1025	139.533134499345	90
0	1043	141.074102596393	91
0	1045	142.33864220722	92
0	1063	143.617969460798	93
0	1069	144.894156767534	94
0	1087	146.203680727877	95
0	1101	147.976570433252	96
0	1119	149.21200715519	97
0	1121	150.572565577938	98
0	1127	151.857552197543	99
0	1129	153.432464189609	100
0	1147	154.591308966061	101
0	1165	155.807930110503	102
0	1167	157.288514155444	103
0	1185	159.163187880084	104
0	1203	160.26705274616	105
0	1221	161.469944005614	106
0	1239	163.278788613636	107
0	1257	164.637203907376	108
0	1263	165.67555718591	109
0	1269	166.785489384565	110
0	1279	167.981840007487	111
0	1297	169.885593391503	112
0	1299	170.902162161902	113
0	1313	172.131510219085	114
0	1319	173.179439908373	115
0	1337	174.29905524991	116
0	1339	175.686060053776	117
0	1357	177.520950548598	118
0	1359	179.173696364756	119
0	1377	181.011009683847	120
0	1395	182.671419776292	121
0	1397	184.519026265727	122
0	1399	186.394707348678	123
0	1401	187.395175819533	124
0	1403	188.80516014855	125
0	1421	190.694590745975	126
0	1431	192.197862692426	127
0	1437	193.296239295292	128
0	1455	194.396832643791	129
0	1473	196.073288432804	130
0	1475	197.286324990929	131
0	1493	198.301183522462	132
0	1511	200.092207186871	133
0	1525	201.336707820433	134
0	1527	202.549744364123	135
0	1533	204.192924686025	136
0	1551	205.21307362152	137
0	1569	206.441378576697	138
0	1587	208.225568364623	139
0	1589	209.814960317935	140
0	1591	211.655305113194	141
0	1609	212.884548052696	142
0	1611	214.573088057588	143
0	1621	215.986474001796	144
0	1623	217.707992801691	145
0	1641	218.972844871009	146
0	1647	220.832574839719	147
0	1665	222.549021195636	148
0	1683	223.867920637379	149
0	1701	225.764141620385	150
0	1719	227.307720465135	151
0	1721	228.453947318966	152
0	1739	229.650734954529	153
0	1741	231.132318042467	154
0	1759	232.196900800352	155
0	1777	233.948552988951	156
0	1779	235.320897398067	157
0	1781	236.853073440275	158
0	1783	238.108166954496	159
0	1801	239.883342196715	160
1	5	1.317434556699	0
1	5	1.317434556699	1
1	5	1.317434556699	2
1	23	3.230951331677	3
1	23	3.230951331677	4
1	23	3.230951331677	5
1	41	5.041212943669	6
1	41	5.041212943669	7
1	41	5.041212943669	8
1	51	7.015662803448	9
1	51	7.015662803448	10
1	51	7.015662803448	11
1	59	10.270939155681	12
1	59	10.270939155681	13
1	59	10.270939155681	14
1	79	12.985019356886	15
1	79	12.985019356886	16
1	79	12.985019356886	17
1	97	14.117664139764	18
1	97	14.117664139764	19
1	97	14.117664139764	20
1	117	17.042174957306	21
1	117	17.042174957306	22
1	117	17.042174957306	23
1	137	20.676494513033	24
1	137	20.676494513033	25
1	137	20.676494513033	26
1	157	24.327595192609	27
1	157	24.327595192609	28
1	157	24.327595192609	29
1	175	25.690919717602	30
1	175	25.690919717602	31
1	175	25.690919717602	32
1	193	27.10167788931	33
1	193	27.10167788931	34
1	193	27.10167788931	35
1	211	28.97650114193	36
1	211	28.97650114193	37
1	211	28.97650114193	38
1	229	30.078883736162	39
1	229	30.078883736162	40
1	229	30.078883736162	41
1	255	38.462216088134	42
1	255	38.462216088134	43
1	255	38.462216088134	44
1	269	46.171094689257	45
1	269	46.171094689257	46
1	269	46.171094689257	47
1	281	48.951840547386	48
1	281	48.951840547386	49
1	281	48.951840547386	50
1	299	50.285355863582	51
1	299	50.285355863582	52
1	299	50.285355863582	53
1	305	51.835996745977	54
1	305	51.835996745977	55
1	305	51.835996745977	56
1	323	53.766105763904	57
1	323	53.766105763904	58
1	323	53.766105763904	59
1	341	55.050465470099	60
1	341	55.050465470099	61
1	341	55.050465470099	62
1	359	56.783082028055	63
1	359	56.783082028055	64
1	359	56.783082028055	65
1	381	61.276922741133	66
1	381	61.276922741133	67
1	381	61.276922741133	68
1	399	63.116169689332	69
1	399	63.116169689332	70
1	399	63.116169689332	71
1	417	64.54901195429	72
1	417	64.54901195429	73
1	417	64.54901195429	74
1	435	66.323936006838	75
1	435	66.323936006838	76
1	435	66.323936006838	77
1	453	68.218163035658	78
1	453	68.218163035658	79
1	453	68.218163035658	80
1	471	70.049763901386	81
1	471	70.049763901386	82
1	471	70.049763901386	83
1	491	72.953901134385	84
1	491	72.953901134385	85
1	491	72.953901134385	86
1	509	74.287922040657	87
1	509	74.287922040657	88
1	509	74.287922040657	89
1	531	78.393239142083	90
1	531	78.393239142083	91
1	531	78.393239142083	92
1	549	79.725381464339	93
1	549	79.725381464339	94
1	549	79.725381464339	95
1	567	81.562569954287	96
1	567	81.562569954287	97
1	567	81.562569954287	98
1	581	82.603921243685	99
1	581	82.603921243685	100
1	581	82.603921243685	101
1	595	84.03420837273	102
1	595	84.03420837273	103
1	595	84.03420837273	104
1	609	85.287618849996	105
1	609	85.287618849996	106
1	609	85.287618849996	107
1	619	86.862008873041	108
1	619	86.862008873041	109
1	619	86.862008873041	110
1	625	88.696045550421	111
1	625	88.696045550421	112
1	625	88.696045550421	113
1	645	91.99945297737	114
1	645	91.99945297737	115
1	645	91.99945297737	116
1	667	96.16263853198	117
1	667	96.16263853198	118
1	667	96.16263853198	119
1	689	101.638527875702	120
1	689	101.638527875702	121
1	689	101.638527875702	122
1	707	103.456535359558	123
1	707	103.456535359558	124
1	707	103.456535359558	125
1	725	104.56770915694	126
1	725	104.56770915694	127
1	725	104.56770915694	128
1	735	106.050574901657	129
1	735	106.050574901657	130
1	735	106.050574901657	131
1	745	107.992950378181	132
1	745	107.992950378181	133
1	745	107.992950378181	134
1	755	109.724510972947	135
1	755	109.724510972947	136
1	755	109.724510972947	137
1	773	110.905325585988	138
1	773	110.905325585988	139
1	773	110.905325585988	140
1	779	112.780034673474	141
1	779	112.780034673474	142
1	779	112.780034673474	143
1	799	116.147141705946	144
1	799	116.147141705946	145
1	799	116.147141705946	146
1	817	117.179860802618	147
1	817	117.179860802618	148
1	817	117.179860802618	149
1	835	118.31211785226	150
1	835	118.31211785226	151
1	835	118.31211785226	152
1	853	119.724626651643	153
1	853	119.724626651643	154
1	853	119.724626651643	155
1	871	121.356049734681	156
1	871	121.356049734681	157
1	871	121.356049734681	158
1	889	122.538225421287	159
1	889	122.538225421287	160
1	889	122.538225421287	161
1	903	123.649470294719	162
1	903	123.649470294719	163
1	903	123.649470294719	164
1	917	125.519597372882	165
1	917	125.519597372882	166
1	917	125.519597372882	167
1	939	129.854072101384	168
1	939	129.854072101384	169
1	939	129.854072101384	170
1	957	131.495600393169	171
1	957	131.495600393169	172
1	957	131.495600393169	173
1	971	133.424996437813	174
1	971	133.424996437813	175
1	971	133.424996437813	176
1	989	134.564028711314	177
1	989	134.564028711314	178
1	989	134.564028711314	179
1	1007	136.214722026864	180
1	1007	136.214722026864	181
1	1007	136.214722026864	182
1	1027	139.548070300405	183
1	1027	139.548070300405	184
1	1027	139.548070300405	185
1	1047	142.350016784209	186
1	1047	142.350016784209	187
1	1047	142.350016784209	188
1	1065	143.628700441863	189
1	1065	143.628700441863	190
1	1065	143.628700441863	191
1	1071	144.904311757322	192
1	1071	144.904311757322	193
1	1071	144.904311757322	194
1	1089	146.22168550674	195
1	1089	146.22168550674	196
1	1089	146.22168550674	197
1	1103	148.015335241199	198
1	1103	148.015335241199	199
1	1103	148.015335241199	200
1	1123	150.595678746849	201
1	1123	150.595678746849	202
1	1123	150.595678746849	203
1	1131	153.462434031338	204
1	1131	153.462434031338	205
1	1131	153.462434031338	206
1	1149	154.607261228596	207
1	1149	154.607261228596	208
1	1149	154.607261228596	209
1	1169	157.300870785485	210
1	1169	157.300870785485	211
1	1169	157.300870785485	212
1	1187	159.18560693461	213
1	1187	159.18560693461	214
1	1187	159.18560693461	215
1	1205	160.310651238713	216
1	1205	160.310651238713	217
1	1205	160.310651238713	218
1	1223	161.497616649912	219
1	1223	161.497616649912	220
1	1223	161.497616649912	221
1	1241	163.310651203082	222
1	1241	163.310651203082	223
1	1241	163.310651203082	224
1	1259	164.652389100407	225
1	1259	164.652389100407	226
1	1259	164.652389100407	227
1	1265	165.691844774949	228
1	1265	165.691844774949	229
1	1265	165.691844774949	230
1	1271	166.808108706163	231
1	1271	166.808108706163	232
1	1271	166.808108706163	233
1	1281	168.022343102109	234
1	1281	168.022343102109	235
1	1281	168.022343102109	236
1	1301	170.912415787697	237
1	1301	170.912415787697	238
1	1301	170.912415787697	239
1	1315	172.141607888466	240
1	1315	172.141607888466	241
1	1315	172.141607888466	242
1	1321	173.223905783531	243
1	1321	173.223905783531	244
1	1321	173.223905783531	245
1	1341	175.741942882362	246
1	1341	175.741942882362	247
1	1341	175.741942882362	248
1	1361	179.189216835657	249
1	1361	179.189216835657	250
1	1361	179.189216835657	251
1	1379	181.02262456207	252
1	1379	181.02262456207	253
1	1379	181.02262456207	254
1	1405	188.823958960039	255
1	1405	188.823958960039	256
1	1405	188.823958960039	257
1	1423	190.705601502837	258
1	1423	190.705601502837	259
1	1423	190.705601502837	260
1	1433	192.210643546766	261
1	1433	192.210643546766	262
1	1433	192.210643546766	263
1	1439	193.315019981225	264
1	1439	193.315019981225	265
1	1439	193.315019981225	266
1	1457	194.408781369069	267
1	1457	194.408781369069	268
1	1457	194.408781369069	269
1	1477	197.301941048552	270
1	1477	197.301941048552	271
1	1477	197.301941048552	272
1	1495	198.32332298853	273
1	1495	198.32332298853	274
1	1495	198.32332298853	275
1	1513	200.113527859566	276
1	1513	200.113527859566	277
1	1513	200.113527859566	278
1	1529	202.565636246797	279
1	1529	202.565636246797	280
1	1529	202.565636246797	281
1	1535	204.210926156084	282
1	1535	204.210926156084	283
1	1535	204.210926156084	284
1	1553	205.243430210585	285
1	1553	205.243430210585	286
1	1553	205.243430210585	287
1	1571	206.460610352497	288
1	1571	206.460610352497	289
1	1571	206.460610352497	290
1	1593	211.668568686951	291
1	1593	211.668568686951	292
1	1593	211.668568686951	293
1	1613	214.601292486941	294
1	1613	214.601292486941	295
1	1613	214.601292486941	296
1	1625	217.721412746213	297
1	1625	217.721412746213	298
1	1625	217.721412746213	299
1	1643	218.987852782058	300
1	1643	218.987852782058	301
1	1643	218.987852782058	302
1	1649	220.845425649589	303
1	1649	220.845425649589	304
1	1649	220.845425649589	305
1	1667	222.5724980175	306
1	1667	222.5724980175	307
1	1667	222.5724980175	308
1	1685	223.879465152448	309
1	1685	223.879465152448	310
1	1685	223.879465152448	311
1	1703	225.77529969836	312
1	1703	225.77529969836	313
1	1703	225.77529969836	314
1	1723	228.47092201723	315
1	1723	228.47092201723	316
1	1723	228.47092201723	317
1	1743	231.15522430922	318
1	1743	231.15522430922	319
1	1743	231.15522430922	320
1	1761	232.224617105242	321
1	1761	232.224617105242	322
1	1761	232.224617105242	323
1	1785	238.118408217448	324
1	1785	238.118408217448	325
1	1785	238.118408217448	326
1	1803	239.897956761342	327
1	1803	239.897956761342	328
1	1803	239.897956761342	329
2	9	1.331444330932	0
2	9	1.331444330932	1
2	9	1.331444330932	2
2	27	3.242990132847	3
2	27	3.242990132847	4
2	27	3.242990132847	5
2	45	5.05244811298	6
2	45	5.05244811298	7
2	45	5.05244811298	8
2	64	10.291166972499	9
2	64	10.291166972499	10
2	64	10.291166972499	11
2	88	13.020324500618	12
2	88	13.020324500618	13
2	88	13.020324500618	14
2	101	14.128520752697	15
2	101	14.128520752697	16
2	101	14.128520752697	17
2	121	17.061383396085	18
2	121	17.061383396085	19
2	121	17.061383396085	20
2	141	20.69040335211	21
2	141	20.69040335211	22
2	141	20.69040335211	23
2	161	24.337854023006	24
2	161	24.337854023006	25
2	161	24.337854023006	26
2	180	25.704677691248	27
2	180	25.704677691248	28
2	180	25.704677691248	29
2	202	27.133019167082	30
2	202	27.133019167082	31
2	202	27.133019167082	32
2	215	29.002962738761	33
2	215	29.002962738761	34
2	215	29.002962738761	35
2	233	30.090828230114	36
2	233	30.090828230114	37
2	233	30.090828230114	38
2	285	48.979951049923	39
2	285	48.979951049923	40
2	285	48.979951049923	41
2	310	51.846675934071	42
2	310	51.846675934071	43
2	310	51.846675934071	44
2	328	53.785657497759	45
2	328	53.785657497759	46
2	328	53.785657497759	47
2	346	55.062261751069	48
2	346	55.062261751069	49
2	346	55.062261751069	50
2	364	56.806880142206	51
2	364	56.806880142206	52
2	364	56.806880142206	53
2	385	61.290253144914	54
2	385	61.290253144914	55
2	385	61.290253144914	56
2	403	63.128639196173	57
2	403	63.128639196173	58
2	403	63.128639196173	59
2	421	64.575941190557	60
2	421	64.575941190557	61
2	421	64.575941190557	62
2	439	66.334707634182	63
2	439	66.334707634182	64
2	439	66.334707634182	65
2	457	68.240881539472	66
2	457	68.240881539472	67
2	457	68.240881539472	68
2	475	70.059897155628	69
2	475	70.059897155628	70
2	475	70.059897155628	71
2	499	72.97800691325	72
2	499	72.97800691325	73
2	499	72.97800691325	74
2	513	74.298747579461	75
2	513	74.298747579461	76
2	513	74.298747579461	77
2	535	78.404618494365	78
2	535	78.404618494365	79
2	535	78.404618494365	80
2	561	79.780355475722	81
2	561	79.780355475722	82
2	561	79.780355475722	83
2	575	81.59304235996	84
2	575	81.59304235996	85
2	575	81.59304235996	86
2	585	82.626905115123	87
2	585	82.626905115123	88
2	585	82.626905115123	89
2	599	84.07315076291	90
2	599	84.07315076291	91
2	599	84.07315076291	92
2	613	85.301633435006	93
2	613	85.301633435006	94
2	613	85.301633435006	95
2	629	88.710793741045	96
2	629	88.710793741045	97
2	629	88.710793741045	98
2	649	92.009547930481	99
2	649	92.009547930481	100
2	649	92.009547930481	101
2	671	96.181905499791	102
2	671	96.181905499791	103
2	671	96.181905499791	104
2	697	101.669755454804	105
2	697	101.669755454804	106
2	697	101.669755454804	107
2	711	103.477171905964	108
2	711	103.477171905964	109
2	711	103.477171905964	110
2	749	108.013210677189	111
2	749	108.013210677189	112
2	749	108.013210677189	113
2	759	109.73846495693	114
2	759	109.73846495693	115
2	759	109.73846495693	116
2	783	112.798539991017	117
2	783	112.798539991017	118
2	783	112.798539991017	119
2	807	116.178994177516	120
2	807	116.178994177516	121
2	807	116.178994177516	122
2	822	117.191533943414	123
2	822	117.191533943414	124
2	822	117.191533943414	125
2	847	118.416342274641	126
2	847	118.416342274641	127
2	847	118.416342274641	128
2	865	119.767715486896	129
2	865	119.767715486896	130
2	865	119.767715486896	131
2	875	121.373635521425	132
2	875	121.373635521425	133
2	875	121.373635521425	134
2	893	122.553336086815	135
2	893	122.553336086815	136
2	893	122.553336086815	137
2	907	123.666909352561	138
2	907	123.666909352561	139
2	907	123.666909352561	140
2	925	125.548914486298	141
2	925	125.548914486298	142
2	925	125.548914486298	143
2	943	129.86771785285	144
2	943	129.86771785285	145
2	943	129.86771785285	146
2	961	131.506935560304	147
2	961	131.506935560304	148
2	961	131.506935560304	149
2	980	133.467533248935	150
2	980	133.467533248935	151
2	980	133.467533248935	152
2	997	134.584924481283	153
2	997	134.584924481283	154
2	997	134.584924481283	155
2	1011	136.230072030976	156
2	1011	136.230072030976	157
2	1011	136.230072030976	158
2	1031	139.563580683587	159
2	1031	139.563580683587	160
2	1031	139.563580683587	161
2	1056	142.373429177565	162
2	1056	142.373429177565	163
2	1056	142.373429177565	164
2	1075	144.914753584636	165
2	1075	144.914753584636	166
2	1075	144.914753584636	167
2	1097	146.257635288424	168
2	1097	146.257635288424	169
2	1097	146.257635288424	170
2	1111	148.043425461033	171
2	1111	148.043425461033	172
2	1111	148.043425461033	173
2	1139	153.492779662484	174
2	1139	153.492779662484	175
2	1139	153.492779662484	176
2	1153	154.629287188863	177
2	1153	154.629287188863	178
2	1153	154.629287188863	179
2	1173	157.319623820596	180
2	1173	157.319623820596	181
2	1173	157.319623820596	182
2	1192	159.207066107767	183
2	1192	159.207066107767	184
2	1192	159.207066107767	185
2	1209	160.325440734397	186
2	1209	160.325440734397	187
2	1209	160.325440734397	188
2	1227	161.508777583147	189
2	1227	161.508777583147	190
2	1227	161.508777583147	191
2	1246	163.321850884978	192
2	1246	163.321850884978	193
2	1246	163.321850884978	194
2	1285	168.048373318658	195
2	1285	168.048373318658	196
2	1285	168.048373318658	197
2	1306	170.930412993015	198
2	1306	170.930412993015	199
2	1306	170.930412993015	200
2	1326	173.243392861868	201
2	1326	173.243392861868	202
2	1326	173.243392861868	203
2	1350	175.780540677918	204
2	1350	175.780540677918	205
2	1350	175.780540677918	206
2	1369	179.259294464367	207
2	1369	179.259294464367	208
2	1369	179.259294464367	209
2	1383	181.03599636995	210
2	1383	181.03599636995	211
2	1383	181.03599636995	212
2	1410	188.840741772005	213
2	1410	188.840741772005	214
2	1410	188.840741772005	215
2	1443	193.33468144977	216
2	1443	193.33468144977	217
2	1443	193.33468144977	218
2	1461	194.420073789943	219
2	1461	194.420073789943	220
2	1461	194.420073789943	221
2	1485	197.337162198539	222
2	1485	197.337162198539	223
2	1485	197.337162198539	224
2	1499	198.335497847662	225
2	1499	198.335497847662	226
2	1499	198.335497847662	227
2	1544	204.267803596536	228
2	1544	204.267803596536	229
2	1544	204.267803596536	230
2	1557	205.261259242703	231
2	1557	205.261259242703	232
2	1557	205.261259242703	233
2	1579	206.486111876215	234
2	1579	206.486111876215	235
2	1579	206.486111876215	236
2	1605	211.719270786219	237
2	1605	211.719270786219	238
2	1605	211.719270786219	239
2	1637	217.776122373481	240
2	1637	217.776122373481	241
2	1637	217.776122373481	242
2	1653	220.881037974915	243
2	1653	220.881037974915	244
2	1653	220.881037974915	245
2	1671	222.590860423922	246
2	1671	222.590860423922	247
2	1671	222.590860423922	248
2	1693	223.90985307492	249
2	1693	223.90985307492	250
2	1693	223.90985307492	251
2	1715	225.812403213097	252
2	1715	225.812403213097	253
2	1715	225.812403213097	254
2	1727	228.483905569028	255
2	1727	228.483905569028	256
2	1727	228.483905569028	257
2	1748	231.170340138392	258
2	1748	231.170340138392	259
2	1748	231.170340138392	260
2	1766	232.245651248349	261
2	1766	232.245651248349	262
2	1766	232.245651248349	263
2	1789	238.130940703672	264
2	1789	238.130940703672	265
2	1789	238.130940703672	266
3	10	1.332888171871	0
3	10	1.332888171871	1
3	10	1.332888171871	2
3	28	3.24815812129	3
3	28	3.24815812129	4
3	28	3.24815812129	5
3	63	10.283192405307	6
3	63	10.283192405307	7
3	63	10.283192405307	8
3	83	13.001950995973	9
3	83	13.001950995973	10
3	83	13.001950995973	11
3	102	14.135521330314	12
3	102	14.135521330314	13
3	102	14.135521330314	14
3	122	17.068282262309	15
3	122	17.068282262309	16
3	122	17.068282262309	17
3	142	20.693506315408	18
3	142	20.693506315408	19
3	142	20.693506315408	20
3	162	24.346334329415	21
3	162	24.346334329415	22
3	162	24.346334329415	23
3	179	25.702116297952	24
3	179	25.702116297952	25
3	179	25.702116297952	26
3	197	27.113546935324	27
3	197	27.113546935324	28
3	197	27.113546935324	29
3	220	29.017212856505	30
3	220	29.017212856505	31
3	220	29.017212856505	32
3	234	30.098653786751	33
3	234	30.098653786751	34
3	234	30.098653786751	35
3	273	46.199745291624	36
3	273	46.199745291624	37
3	273	46.199745291624	38
3	289	49.003489516962	39
3	289	49.003489516962	40
3	289	49.003489516962	41
3	309	51.846533103433	42
3	309	51.846533103433	43
3	309	51.846533103433	44
3	327	53.779536679304	45
3	327	53.779536679304	46
3	327	53.779536679304	47
3	345	55.060899026184	48
3	345	55.060899026184	49
3	345	55.060899026184	50
3	363	56.799649373615	51
3	363	56.799649373615	52
3	363	56.799649373615	53
3	386	61.297768881992	54
3	386	61.297768881992	55
3	386	61.297768881992	56
3	404	63.13322364476	57
3	404	63.13322364476	58
3	404	63.13322364476	59
3	425	64.587333792341	60
3	425	64.587333792341	61
3	425	64.587333792341	62
3	443	66.347011754181	63
3	443	66.347011754181	64
3	443	66.347011754181	65
3	458	68.2494176443	66
3	458	68.2494176443	67
3	458	68.2494176443	68
3	483	70.08586358015	69
3	483	70.08586358015	70
3	483	70.08586358015	71
3	495	72.96672812734	72
3	495	72.96672812734	73
3	495	72.96672812734	74
3	514	74.299854541493	75
3	514	74.299854541493	76
3	514	74.299854541493	77
3	540	78.42111432181	78
3	540	78.42111432181	79
3	540	78.42111432181	80
3	553	79.739293397469	81
3	553	79.739293397469	82
3	553	79.739293397469	83
3	571	81.582812574149	84
3	571	81.582812574149	85
3	571	81.582812574149	86
3	630	88.713037339281	87
3	630	88.713037339281	88
3	630	88.713037339281	89
3	650	92.013877145748	90
3	650	92.013877145748	91
3	650	92.013877145748	92
3	676	96.198145673419	93
3	676	96.198145673419	94
3	676	96.198145673419	95
3	693	101.6522607024	96
3	693	101.6522607024	97
3	693	101.6522607024	98
3	715	103.493946988976	99
3	715	103.493946988976	100
3	715	103.493946988976	101
3	729	104.581367246173	102
3	729	104.581367246173	103
3	729	104.581367246173	104
3	739	106.070490688882	105
3	739	106.070490688882	106
3	739	106.070490688882	107
3	763	109.75128716164	108
3	763	109.75128716164	109
3	763	109.75128716164	110
3	784	112.79912327117	111
3	784	112.79912327117	112
3	784	112.79912327117	113
3	803	116.165416664195	114
3	803	116.165416664195	115
3	803	116.165416664195	116
3	821	117.190209569175	117
3	821	117.190209569175	118
3	821	117.190209569175	119
3	839	118.340211947417	120
3	839	118.340211947417	121
3	839	118.340211947417	122
3	857	119.735664158785	123
3	857	119.735664158785	124
3	857	119.735664158785	125
3	876	121.374190883935	126
3	876	121.374190883935	127
3	876	121.374190883935	128
3	897	122.567456749626	129
3	897	122.567456749626	130
3	897	122.567456749626	131
3	921	125.535627104179	132
3	921	125.535627104179	133
3	921	125.535627104179	134
3	951	129.907009070915	135
3	951	129.907009070915	136
3	951	129.907009070915	137
3	975	133.442793878154	138
3	975	133.442793878154	139
3	975	133.442793878154	140
3	993	134.57455277834	141
3	993	134.57455277834	142
3	993	134.57455277834	143
3	1019	136.26315800162	144
3	1019	136.26315800162	145
3	1019	136.26315800162	146
3	1035	139.576785323708	147
3	1035	139.576785323708	148
3	1035	139.576785323708	149
3	1051	142.360677382068	150
3	1051	142.360677382068	151
3	1051	142.360677382068	152
3	1083	144.96512523732	153
3	1083	144.96512523732	154
3	1083	144.96512523732	155
3	1093	146.243797571535	156
3	1093	146.243797571535	157
3	1093	146.243797571535	158
3	1107	148.026248235342	159
3	1107	148.026248235342	160
3	1107	148.026248235342	161
3	1135	153.476879130652	162
3	1135	153.476879130652	163
3	1135	153.476879130652	164
3	1154	154.631652336947	165
3	1154	154.631652336947	166
3	1154	154.631652336947	167
3	1178	157.336295051707	168
3	1178	157.336295051707	169
3	1178	157.336295051707	170
3	1191	159.204278386744	171
3	1191	159.204278386744	172
3	1191	159.204278386744	173
3	1210	160.326182243484	174
3	1210	160.326182243484	175
3	1210	160.326182243484	176
3	1228	161.51383818833	177
3	1228	161.51383818833	178
3	1228	161.51383818833	179
3	1245	163.321196570016	180
3	1245	163.321196570016	181
3	1245	163.321196570016	182
3	1275	166.835642286292	183
3	1275	166.835642286292	184
3	1275	166.835642286292	185
3	1289	168.059371530394	186
3	1289	168.059371530394	187
3	1289	168.059371530394	188
3	1305	170.92826129005	189
3	1305	170.92826129005	190
3	1305	170.92826129005	191
3	1325	173.240240760366	192
3	1325	173.240240760366	193
3	1325	173.240240760366	194
3	1345	175.764027442366	195
3	1345	175.764027442366	196
3	1345	175.764027442366	197
3	1365	179.243660320198	198
3	1365	179.243660320198	199
3	1365	179.243660320198	200
3	1387	181.050449601166	201
3	1387	181.050449601166	202
3	1387	181.050449601166	203
3	1409	188.834670564583	204
3	1409	188.834670564583	205
3	1409	188.834670564583	206
3	1427	190.718070062787	207
3	1427	190.718070062787	208
3	1427	190.718070062787	209
3	1451	193.363234183431	210
3	1451	193.363234183431	211
3	1451	193.363234183431	212
3	1465	194.434603063867	213
3	1465	194.434603063867	214
3	1465	194.434603063867	215
3	1481	197.31440864788	216
3	1481	197.31440864788	217
3	1481	197.31440864788	218
3	1503	198.351157760498	219
3	1503	198.351157760498	220
3	1503	198.351157760498	221
3	1517	200.128001772591	222
3	1517	200.128001772591	223
3	1517	200.128001772591	224
3	1539	204.249286017602	225
3	1539	204.249286017602	226
3	1539	204.249286017602	227
3	1561	205.279242549613	228
3	1561	205.279242549613	229
3	1561	205.279242549613	230
3	1575	206.471887330075	231
3	1575	206.471887330075	232
3	1575	206.471887330075	233
3	1597	211.684831826427	234
3	1597	211.684831826427	235
3	1597	211.684831826427	236
3	1617	214.616735776056	237
3	1617	214.616735776056	238
3	1617	214.616735776056	239
3	1629	217.737135267228	240
3	1629	217.737135267228	241
3	1629	217.737135267228	242
3	1661	220.908231487555	243
3	1661	220.908231487555	244
3	1661	220.908231487555	245
3	1672	222.595720025762	246
3	1672	222.595720025762	247
3	1672	222.595720025762	248
3	1689	223.899470328497	249
3	1689	223.899470328497	250
3	1689	223.899470328497	251
3	1707	225.792057808232	252
3	1707	225.792057808232	253
3	1707	225.792057808232	254
3	1731	228.507039554424	255
3	1731	228.507039554424	256
3	1731	228.507039554424	257
3	1747	231.168525661276	258
3	1747	231.168525661276	259
3	1747	231.168525661276	260
3	1765	232.235736064014	261
3	1765	232.235736064014	262
3	1765	232.235736064014	263
3	1797	238.176004897228	264
3	1797	238.176004897228	265
3	1797	238.176004897228	266
4	17	1.351101004583	0
4	17	1.351101004583	1
4	17	1.351101004583	2
4	35	3.264974989123	3
4	35	3.264974989123	4
4	35	3.264974989123	5
4	71	10.308947106515	6
4	71	10.308947106515	7
4	71	10.308947106515	8
4	87	13.016130629689	9
4	87	13.016130629689	10
4	87	13.016130629689	11
4	109	14.157548814037	12
4	109	14.157548814037	13
4	109	14.157548814037	14
4	126	17.073237364239	15
4	126	17.073237364239	16
4	126	17.073237364239	17
4	149	20.705295459356	18
4	149	20.705295459356	19
4	149	20.705295459356	20
4	166	24.352756468867	21
4	166	24.352756468867	22
4	166	24.352756468867	23
4	187	25.730946183851	24
4	187	25.730946183851	25
4	187	25.730946183851	26
4	201	27.132102503253	27
4	201	27.132102503253	28
4	201	27.132102503253	29
4	219	29.016024981663	30
4	219	29.016024981663	31
4	219	29.016024981663	32
4	238	30.107547297119	33
4	238	30.107547297119	34
4	238	30.107547297119	35
4	293	49.029528326485	36
4	293	49.029528326485	37
4	293	49.029528326485	38
4	317	51.862654789948	39
4	317	51.862654789948	40
4	317	51.862654789948	41
4	332	53.795255197208	42
4	332	53.795255197208	43
4	332	53.795255197208	44
4	353	55.072315719004	45
4	353	55.072315719004	46
4	353	55.072315719004	47
4	368	56.811316600258	48
4	368	56.811316600258	49
4	368	56.811316600258	50
4	393	61.333792494999	51
4	393	61.333792494999	52
4	393	61.333792494999	53
4	411	63.144049231244	54
4	411	63.144049231244	55
4	411	63.144049231244	56
4	426	64.59019730782	57
4	426	64.59019730782	58
4	426	64.59019730782	59
4	447	66.357826191754	60
4	447	66.357826191754	61
4	447	66.357826191754	62
4	465	68.265572199161	63
4	465	68.265572199161	64
4	465	68.265572199161	65
4	479	70.070318604288	66
4	479	70.070318604288	67
4	479	70.070318604288	68
4	503	72.991097069366	69
4	503	72.991097069366	70
4	503	72.991097069366	71
4	521	74.320121507821	72
4	521	74.320121507821	73
4	521	74.320121507821	74
4	539	78.415537318111	75
4	539	78.415537318111	76
4	539	78.415537318111	77
4	557	79.753848671698	78
4	557	79.753848671698	79
4	557	79.753848671698	80
4	589	82.639135252983	81
4	589	82.639135252983	82
4	589	82.639135252983	83
4	603	84.094527041217	84
4	603	84.094527041217	85
4	603	84.094527041217	86
4	637	88.751161513047	87
4	637	88.751161513047	88
4	637	88.751161513047	89
4	654	92.022481266473	90
4	654	92.022481266473	91
4	654	92.022481266473	92
4	675	96.197261264925	93
4	675	96.197261264925	94
4	675	96.197261264925	95
4	701	101.699787228567	96
4	701	101.699787228567	97
4	701	101.699787228567	98
4	719	103.514964110951	99
4	719	103.514964110951	100
4	719	103.514964110951	101
4	767	109.794631946529	102
4	767	109.794631946529	103
4	767	109.794631946529	104
4	791	112.811399949808	105
4	791	112.811399949808	106
4	791	112.811399949808	107
4	808	116.182255803558	108
4	808	116.182255803558	109
4	808	116.182255803558	110
4	829	117.207916480383	111
4	829	117.207916480383	112
4	829	117.207916480383	113
4	843	118.374518266052	114
4	843	118.374518266052	115
4	843	118.374518266052	116
4	861	119.751855837526	117
4	861	119.751855837526	118
4	861	119.751855837526	119
4	883	121.391540673635	120
4	883	121.391540673635	121
4	883	121.391540673635	122
4	911	123.693105699863	123
4	911	123.693105699863	124
4	911	123.693105699863	125
4	926	125.557355957549	126
4	926	125.557355957549	127
4	926	125.557355957549	128
4	947	129.894218718316	129
4	947	129.894218718316	130
4	947	129.894218718316	131
4	965	131.529546229257	132
4	965	131.529546229257	133
4	965	131.529546229257	134
4	979	133.46513789503	135
4	979	133.46513789503	136
4	979	133.46513789503	137
4	998	134.586052394788	138
4	998	134.586052394788	139
4	998	134.586052394788	140
4	1015	136.241911897861	141
4	1015	136.241911897861	142
4	1015	136.241911897861	143
4	1036	139.57723232299	144
4	1036	139.57723232299	145
4	1036	139.57723232299	146
4	1055	142.372187752867	147
4	1055	142.372187752867	148
4	1055	142.372187752867	149
4	1079	144.948606224948	150
4	1079	144.948606224948	151
4	1079	144.948606224948	152
4	1115	148.056713151754	153
4	1115	148.056713151754	154
4	1115	148.056713151754	155
4	1140	153.496684425468	156
4	1140	153.496684425468	157
4	1140	153.496684425468	158
4	1158	154.640583283808	159
4	1158	154.640583283808	160
4	1158	154.640583283808	161
4	1177	157.335829064943	162
4	1177	157.335829064943	163
4	1177	157.335829064943	164
4	1199	159.221562981443	165
4	1199	159.221562981443	166
4	1199	159.221562981443	167
4	1217	160.358060335293	168
4	1217	160.358060335293	169
4	1217	160.358060335293	170
4	1235	161.532500377753	171
4	1235	161.532500377753	172
4	1235	161.532500377753	173
4	1253	163.338203451093	174
4	1253	163.338203451093	175
4	1253	163.338203451093	176
4	1290	168.064348668579	177
4	1290	168.064348668579	178
4	1290	168.064348668579	179
4	1333	173.258775322286	180
4	1333	173.258775322286	181
4	1333	173.258775322286	182
4	1349	175.777397037904	183
4	1349	175.777397037904	184
4	1349	175.777397037904	185
4	1370	179.265863878034	186
4	1370	179.265863878034	187
4	1370	179.265863878034	188
4	1388	181.058838293624	189
4	1388	181.058838293624	190
4	1388	181.058838293624	191
4	1417	188.852289498701	192
4	1417	188.852289498701	193
4	1417	188.852289498701	194
4	1447	193.352713277847	195
4	1447	193.352713277847	196
4	1447	193.352713277847	197
4	1466	194.440136982248	198
4	1466	194.440136982248	199
4	1466	194.440136982248	200
4	1486	197.337167726673	201
4	1486	197.337167726673	202
4	1486	197.337167726673	203
4	1504	198.351303978409	204
4	1504	198.351303978409	205
4	1504	198.351303978409	206
4	1521	200.138174666254	207
4	1521	200.138174666254	208
4	1521	200.138174666254	209
4	1543	204.263873621308	210
4	1543	204.263873621308	211
4	1543	204.263873621308	212
4	1565	205.291777421119	213
4	1565	205.291777421119	214
4	1565	205.291777421119	215
4	1580	206.487797518897	216
4	1580	206.487797518897	217
4	1580	206.487797518897	218
4	1601	211.705998236637	219
4	1601	211.705998236637	220
4	1601	211.705998236637	221
4	1633	217.748997798361	222
4	1633	217.748997798361	223
4	1633	217.748997798361	224
4	1657	220.8934478289	225
4	1657	220.8934478289	226
4	1657	220.8934478289	227
4	1679	222.61361322603	228
4	1679	222.61361322603	229
4	1679	222.61361322603	230
4	1694	223.914674615472	231
4	1694	223.914674615472	232
4	1694	223.914674615472	233
4	1711	225.802079923057	234
4	1711	225.802079923057	235
4	1711	225.802079923057	236
4	1735	228.541301565317	237
4	1735	228.541301565317	238
4	1735	228.541301565317	239
4	1755	231.186623005543	240
4	1755	231.186623005543	241
4	1755	231.186623005543	242
4	1773	232.256992960147	243
4	1773	232.256992960147	244
4	1773	232.256992960147	245
4	1793	238.159339713877	246
4	1793	238.159339713877	247
4	1793	238.159339713877	248
5	20	1.361101004583	0
5	74	10.318947106515	1
5	91	13.026130629689	2
5	132	17.083237364239	3
5	152	20.715295459356	4
5	172	24.362756468867	5
5	190	25.740946183851	6
5	205	27.142102503253	7
5	223	29.026024981663	8
5	320	51.872654789948	9
5	338	53.805255197208	10
5	356	55.082315719004	11
5	374	56.821316600258	12
5	396	61.343792494999	13
5	414	63.154049231244	14
5	432	64.60019730782	15
5	468	68.275572199161	16
5	482	70.080318604288	17
5	524	74.330121507821	18
5	543	78.425537318111	19
5	560	79.763848671698	20
5	592	82.649135252983	21
5	679	96.207261264925	22
5	704	101.709787228567	23
5	722	103.524964110951	24
5	814	116.192255803558	25
5	832	117.217916480383	26
5	864	119.761855837526	27
5	886	121.401540673635	28
5	914	123.703105699863	29
5	932	125.567355957549	30
5	968	131.539546229257	31
5	1018	136.251911897861	32
5	1059	142.382187752867	33
5	1118	148.066713151754	34
5	1146	153.506684425468	35
5	1181	157.345829064943	36
5	1220	160.368060335293	37
5	1238	161.542500377753	38
5	1256	163.348203451093	39
5	1296	168.074348668579	40
5	1336	173.268775322286	41
5	1394	181.068838293624	42
5	1420	188.862289498701	43
5	1492	197.347167726673	44
5	1547	204.273873621308	45
5	1568	205.301777421119	46
5	1586	206.497797518897	47
5	1604	211.715998236637	48
5	1636	217.758997798361	49
5	1660	220.9034478289	50
5	1700	223.924674615472	51
5	1714	225.812079923057	52
5	1758	231.196623005543	53
5	1776	232.266992960147	54
5	1796	238.169339713877	55

