version 2
run General-4-20230921-21:33:47-5605
attr configname General
attr datetime 20230921-21:33:47
attr experiment General
attr inifile omnetpp.ini
attr iterationvars ""
attr iterationvarsf ""
attr measurement ""
attr network Network1
attr processid 5605
attr repetition 4
attr replication #4
attr resultdir results
attr runnumber 4
attr seedset 4
param Network1.node[*].transmissionTime "uniform(1s, 2s)"
param Network1.node[*].delayTime "uniform(0.01s, 0.2s)"
param Network1.node[*].processingTime exponential(0.01s)
param Network1.node[*].lossProbability 0.3

vector 0 Network1.node[0] txVector ETV
vector 1 Network1.node[1] txVector ETV
vector 2 Network1.node[3] txVector ETV
vector 3 Network1.node[2] txVector ETV
vector 4 Network1.node[4] txVector ETV
vector 5 Network1.node[5] rxVector ETV
0	1	0.193735669288	0
0	15	2.094357123985	1
0	17	3.792777363365	2
0	23	5.695955889686	3
0	37	7.268312381501	4
0	55	8.912226644731	5
0	73	10.778109399755	6
0	87	11.958829994001	7
0	101	13.535826962827	8
0	111	15.465233617615	9
0	129	17.150821820986	10
0	139	18.884262965912	11
0	149	19.979461043295	12
0	167	21.923411716395	13
0	185	23.852780316644	14
0	191	25.780188927115	15
0	205	27.74786855645	16
0	223	28.820151812085	17
0	241	30.282481174371	18
0	251	31.843949638461	19
0	253	33.506252073604	20
0	271	35.089795605201	21
0	273	36.724365099488	22
0	275	38.216152737072	23
0	293	40.147567004586	24
0	311	41.286748804074	25
0	329	43.060720430609	26
0	347	44.93779833444	27
0	361	46.889768754985	28
0	379	47.983849397549	29
0	397	49.45138186907	30
0	399	50.857141083028	31
0	401	52.828844404235	32
0	403	53.87276691237	33
0	421	55.158011506	34
0	431	56.183413207452	35
0	449	57.29140440064	36
0	467	58.727575405421	37
0	469	60.256647788141	38
0	471	61.669688831469	39
0	473	62.732255737217	40
0	491	63.928280130647	41
0	509	65.879948722817	42
0	527	67.281647811331	43
0	545	68.878151088175	44
0	547	70.81169371718	45
0	565	72.029609853089	46
0	583	73.236572877191	47
0	593	75.198176061654	48
0	611	77.048241197051	49
0	617	78.402093263728	50
0	635	79.94154145677	51
0	653	81.311778752519	52
0	671	82.796333605111	53
0	673	84.205414676261	54
0	687	85.876995791835	55
0	705	87.168610114525	56
0	707	88.297319609593	57
0	725	90.215502910936	58
0	743	91.745836723052	59
0	761	93.236944301209	60
0	779	94.54072494704	61
0	797	95.864445960538	62
0	815	97.011851308558	63
0	829	98.585633182356	64
0	831	100.475289021309	65
0	849	101.532900823669	66
0	855	103.343079501453	67
0	873	105.204402833867	68
0	875	106.451705371651	69
0	877	108.274018313891	70
0	895	110.149195742017	71
0	913	111.863696829804	72
0	919	113.504725277114	73
0	933	115.27642338366	74
0	951	117.076009791733	75
0	965	118.780506148857	76
0	983	120.068628959048	77
0	1001	122.00024005926	78
0	1007	123.971286586875	79
0	1025	125.49771473293	80
0	1027	127.339754620956	81
0	1029	129.246316453598	82
0	1047	130.627721439737	83
0	1053	131.904248391201	84
0	1071	133.679173028252	85
0	1089	135.381604166624	86
0	1091	136.667774330747	87
0	1093	138.005525270632	88
0	1111	139.625175618722	89
0	1113	141.130087955777	90
0	1131	142.492637149446	91
0	1149	143.821343595084	92
0	1151	144.856711351467	93
0	1153	145.877884800933	94
0	1171	147.444445778072	95
0	1181	148.890779399235	96
0	1195	150.500700566374	97
0	1197	151.68054574371	98
0	1215	153.162306171764	99
0	1221	154.96015460665	100
0	1223	156.449579338698	101
0	1237	157.498228826482	102
0	1239	158.970169827031	103
0	1241	160.690456696475	104
0	1259	161.747649416249	105
0	1277	162.893761125548	106
0	1279	163.918827412339	107
0	1293	165.145689692736	108
0	1311	166.603887311105	109
0	1325	167.834661516982	110
0	1343	169.380850305703	111
0	1357	171.286891601669	112
0	1375	173.006628703714	113
0	1393	174.627839145871	114
0	1395	176.229562817762	115
0	1397	177.812004099755	116
0	1399	178.829852560457	117
0	1401	180.261479028423	118
0	1411	182.10487937384	119
0	1413	184.027913110719	120
0	1431	185.953465928945	121
0	1449	187.505155261762	122
0	1467	189.412929414229	123
0	1485	190.695744451059	124
0	1503	192.471830829902	125
0	1505	194.453091821324	126
0	1507	195.6358789568	127
0	1513	197.481823283869	128
0	1519	199.224885536281	129
0	1537	201.036831958143	130
0	1539	202.769471723743	131
0	1557	204.004152099293	132
0	1559	205.888829458894	133
0	1577	207.279980534145	134
0	1579	209.240235384477	135
0	1597	210.410259421838	136
0	1615	211.99094607231	137
0	1633	213.260011674061	138
0	1651	214.534817143499	139
0	1669	215.88565304728	140
0	1687	217.193330689257	141
0	1705	218.677289428812	142
0	1723	219.704072765697	143
0	1741	221.36370300494	144
0	1759	223.077601561713	145
0	1777	224.509314445703	146
0	1787	225.720688565093	147
0	1789	227.187673103454	148
0	1807	228.870547304785	149
0	1825	230.267789978225	150
0	1843	232.084637261152	151
0	1857	233.240468412561	152
0	1859	234.519649819394	153
0	1877	236.038145170237	154
0	1895	237.660191777784	155
0	1913	239.271024187484	156
1	3	0.205631491707	0
1	3	0.205631491707	1
1	3	0.205631491707	2
1	19	3.812800292262	3
1	19	3.812800292262	4
1	19	3.812800292262	5
1	25	5.710442168422	6
1	25	5.710442168422	7
1	25	5.710442168422	8
1	39	7.294975750634	9
1	39	7.294975750634	10
1	39	7.294975750634	11
1	57	8.940775434303	12
1	57	8.940775434303	13
1	57	8.940775434303	14
1	75	10.79190907262	15
1	75	10.79190907262	16
1	75	10.79190907262	17
1	89	11.973163605779	18
1	89	11.973163605779	19
1	89	11.973163605779	20
1	103	13.548520687666	21
1	103	13.548520687666	22
1	103	13.548520687666	23
1	113	15.504622228354	24
1	113	15.504622228354	25
1	113	15.504622228354	26
1	131	17.172827640781	27
1	131	17.172827640781	28
1	131	17.172827640781	29
1	141	18.896714688641	30
1	141	18.896714688641	31
1	141	18.896714688641	32
1	151	19.991238822904	33
1	151	19.991238822904	34
1	151	19.991238822904	35
1	169	21.934792107008	36
1	169	21.934792107008	37
1	169	21.934792107008	38
1	187	23.864733265905	39
1	187	23.864733265905	40
1	187	23.864733265905	41
1	193	25.794054609655	42
1	193	25.794054609655	43
1	193	25.794054609655	44
1	207	27.760015835548	45
1	207	27.760015835548	46
1	207	27.760015835548	47
1	225	28.831723758986	48
1	225	28.831723758986	49
1	225	28.831723758986	50
1	243	30.292585988476	51
1	243	30.292585988476	52
1	243	30.292585988476	53
1	255	33.529229892258	54
1	255	33.529229892258	55
1	255	33.529229892258	56
1	277	38.25362488435	57
1	277	38.25362488435	58
1	277	38.25362488435	59
1	295	40.170643854662	60
1	295	40.170643854662	61
1	295	40.170643854662	62
1	313	41.312244405649	63
1	313	41.312244405649	64
1	313	41.312244405649	65
1	331	43.079802611832	66
1	331	43.079802611832	67
1	331	43.079802611832	68
1	349	44.947964544286	69
1	349	44.947964544286	70
1	349	44.947964544286	71
1	363	46.902858456645	72
1	363	46.902858456645	73
1	363	46.902858456645	74
1	381	48.040587864812	75
1	381	48.040587864812	76
1	381	48.040587864812	77
1	405	53.885920379019	78
1	405	53.885920379019	79
1	405	53.885920379019	80
1	423	55.169477442932	81
1	423	55.169477442932	82
1	423	55.169477442932	83
1	433	56.194362825828	84
1	433	56.194362825828	85
1	433	56.194362825828	86
1	451	57.314764629797	87
1	451	57.314764629797	88
1	451	57.314764629797	89
1	475	62.748303973241	90
1	475	62.748303973241	91
1	475	62.748303973241	92
1	493	63.949150573187	93
1	493	63.949150573187	94
1	493	63.949150573187	95
1	511	65.905948255325	96
1	511	65.905948255325	97
1	511	65.905948255325	98
1	529	67.308530803948	99
1	529	67.308530803948	100
1	529	67.308530803948	101
1	549	70.824771418419	102
1	549	70.824771418419	103
1	549	70.824771418419	104
1	567	72.058001779759	105
1	567	72.058001779759	106
1	567	72.058001779759	107
1	585	73.251341608326	108
1	585	73.251341608326	109
1	585	73.251341608326	110
1	595	75.214955020948	111
1	595	75.214955020948	112
1	595	75.214955020948	113
1	613	77.065811162947	114
1	613	77.065811162947	115
1	613	77.065811162947	116
1	619	78.416528561492	117
1	619	78.416528561492	118
1	619	78.416528561492	119
1	637	79.956850317302	120
1	637	79.956850317302	121
1	637	79.956850317302	122
1	655	81.326851203629	123
1	655	81.326851203629	124
1	655	81.326851203629	125
1	675	84.218817318476	126
1	675	84.218817318476	127
1	675	84.218817318476	128
1	689	85.889801955171	129
1	689	85.889801955171	130
1	689	85.889801955171	131
1	709	88.310766279393	132
1	709	88.310766279393	133
1	709	88.310766279393	134
1	727	90.230401571717	135
1	727	90.230401571717	136
1	727	90.230401571717	137
1	745	91.76084694154	138
1	745	91.76084694154	139
1	745	91.76084694154	140
1	763	93.26823374863	141
1	763	93.26823374863	142
1	763	93.26823374863	143
1	781	94.551291465431	144
1	781	94.551291465431	145
1	781	94.551291465431	146
1	799	95.889912844151	147
1	799	95.889912844151	148
1	799	95.889912844151	149
1	817	97.024552905377	150
1	817	97.024552905377	151
1	817	97.024552905377	152
1	833	100.495945664151	153
1	833	100.495945664151	154
1	833	100.495945664151	155
1	851	101.543058657666	156
1	851	101.543058657666	157
1	851	101.543058657666	158
1	857	103.355537908229	159
1	857	103.355537908229	160
1	857	103.355537908229	161
1	879	108.295036517447	162
1	879	108.295036517447	163
1	879	108.295036517447	164
1	897	110.169896283336	165
1	897	110.169896283336	166
1	897	110.169896283336	167
1	915	111.886290817051	168
1	915	111.886290817051	169
1	915	111.886290817051	170
1	921	113.529600010254	171
1	921	113.529600010254	172
1	921	113.529600010254	173
1	935	115.295754916893	174
1	935	115.295754916893	175
1	935	115.295754916893	176
1	953	117.086725126778	177
1	953	117.086725126778	178
1	953	117.086725126778	179
1	967	118.795190666919	180
1	967	118.795190666919	181
1	967	118.795190666919	182
1	985	120.119293128394	183
1	985	120.119293128394	184
1	985	120.119293128394	185
1	1003	122.016633357012	186
1	1003	122.016633357012	187
1	1003	122.016633357012	188
1	1009	123.981860853234	189
1	1009	123.981860853234	190
1	1009	123.981860853234	191
1	1031	129.311017002841	192
1	1031	129.311017002841	193
1	1031	129.311017002841	194
1	1049	130.643019838126	195
1	1049	130.643019838126	196
1	1049	130.643019838126	197
1	1055	131.920202792237	198
1	1055	131.920202792237	199
1	1055	131.920202792237	200
1	1073	133.707119379334	201
1	1073	133.707119379334	202
1	1073	133.707119379334	203
1	1095	138.021617806065	204
1	1095	138.021617806065	205
1	1095	138.021617806065	206
1	1115	141.144255201453	207
1	1115	141.144255201453	208
1	1115	141.144255201453	209
1	1133	142.509186707387	210
1	1133	142.509186707387	211
1	1133	142.509186707387	212
1	1155	145.894860212138	213
1	1155	145.894860212138	214
1	1155	145.894860212138	215
1	1173	147.467570792048	216
1	1173	147.467570792048	217
1	1173	147.467570792048	218
1	1183	148.938687818976	219
1	1183	148.938687818976	220
1	1183	148.938687818976	221
1	1199	151.706018230059	222
1	1199	151.706018230059	223
1	1199	151.706018230059	224
1	1217	153.175737863417	225
1	1217	153.175737863417	226
1	1217	153.175737863417	227
1	1225	156.468179973907	228
1	1225	156.468179973907	229
1	1225	156.468179973907	230
1	1243	160.70060242545	231
1	1243	160.70060242545	232
1	1243	160.70060242545	233
1	1261	161.771987887652	234
1	1261	161.771987887652	235
1	1261	161.771987887652	236
1	1281	163.936463098725	237
1	1281	163.936463098725	238
1	1281	163.936463098725	239
1	1295	165.167738663053	240
1	1295	165.167738663053	241
1	1295	165.167738663053	242
1	1313	166.623874597071	243
1	1313	166.623874597071	244
1	1313	166.623874597071	245
1	1327	167.846587490559	246
1	1327	167.846587490559	247
1	1327	167.846587490559	248
1	1345	169.400394233533	249
1	1345	169.400394233533	250
1	1345	169.400394233533	251
1	1359	171.309358807391	252
1	1359	171.309358807391	253
1	1359	171.309358807391	254
1	1377	173.0281486312	255
1	1377	173.0281486312	256
1	1377	173.0281486312	257
1	1403	180.272953717555	258
1	1403	180.272953717555	259
1	1403	180.272953717555	260
1	1415	184.046202322787	261
1	1415	184.046202322787	262
1	1415	184.046202322787	263
1	1433	185.97633741891	264
1	1433	185.97633741891	265
1	1433	185.97633741891	266
1	1451	187.522478318608	267
1	1451	187.522478318608	268
1	1451	187.522478318608	269
1	1469	189.425673343776	270
1	1469	189.425673343776	271
1	1469	189.425673343776	272
1	1487	190.710193282796	273
1	1487	190.710193282796	274
1	1487	190.710193282796	275
1	1509	195.656274165321	276
1	1509	195.656274165321	277
1	1509	195.656274165321	278
1	1515	197.497191290449	279
1	1515	197.497191290449	280
1	1515	197.497191290449	281
1	1521	199.241547732049	282
1	1521	199.241547732049	283
1	1521	199.241547732049	284
1	1541	202.7882783902	285
1	1541	202.7882783902	286
1	1541	202.7882783902	287
1	1561	205.899075438168	288
1	1561	205.899075438168	289
1	1561	205.899075438168	290
1	1581	209.251265226661	291
1	1581	209.251265226661	292
1	1581	209.251265226661	293
1	1599	210.437486908847	294
1	1599	210.437486908847	295
1	1599	210.437486908847	296
1	1617	212.019748568968	297
1	1617	212.019748568968	298
1	1617	212.019748568968	299
1	1635	213.272168557312	300
1	1635	213.272168557312	301
1	1635	213.272168557312	302
1	1653	214.55388456632	303
1	1653	214.55388456632	304
1	1653	214.55388456632	305
1	1671	215.907204892532	306
1	1671	215.907204892532	307
1	1671	215.907204892532	308
1	1689	217.20851088392	309
1	1689	217.20851088392	310
1	1689	217.20851088392	311
1	1707	218.720946103101	312
1	1707	218.720946103101	313
1	1707	218.720946103101	314
1	1725	219.7173185904	315
1	1725	219.7173185904	316
1	1725	219.7173185904	317
1	1743	221.382492304998	318
1	1743	221.382492304998	319
1	1743	221.382492304998	320
1	1761	223.099564989151	321
1	1761	223.099564989151	322
1	1761	223.099564989151	323
1	1779	224.534025044174	324
1	1779	224.534025044174	325
1	1779	224.534025044174	326
1	1791	227.200812388535	327
1	1791	227.200812388535	328
1	1791	227.200812388535	329
1	1809	228.897922401156	330
1	1809	228.897922401156	331
1	1809	228.897922401156	332
1	1827	230.302598388758	333
1	1827	230.302598388758	334
1	1827	230.302598388758	335
1	1845	232.101995309185	336
1	1845	232.101995309185	337
1	1845	232.101995309185	338
1	1861	234.535581496418	339
1	1861	234.535581496418	340
1	1861	234.535581496418	341
1	1879	236.052718188293	342
1	1879	236.052718188293	343
1	1879	236.052718188293	344
1	1897	237.685154926767	345
1	1897	237.685154926767	346
1	1897	237.685154926767	347
2	7	0.227595799025	0
2	7	0.227595799025	1
2	7	0.227595799025	2
2	30	5.729538645449	3
2	30	5.729538645449	4
2	30	5.729538645449	5
2	43	7.305381682946	6
2	43	7.305381682946	7
2	43	7.305381682946	8
2	66	8.978512781681	9
2	66	8.978512781681	10
2	66	8.978512781681	11
2	79	10.806615005591	12
2	79	10.806615005591	13
2	79	10.806615005591	14
2	93	11.986089609292	15
2	93	11.986089609292	16
2	93	11.986089609292	17
2	117	15.520014073081	18
2	117	15.520014073081	19
2	117	15.520014073081	20
2	155	20.005758893924	21
2	155	20.005758893924	22
2	155	20.005758893924	23
2	174	21.961407023155	24
2	174	21.961407023155	25
2	174	21.961407023155	26
2	197	25.809795215864	27
2	197	25.809795215864	28
2	197	25.809795215864	29
2	211	27.790954718032	30
2	211	27.790954718032	31
2	211	27.790954718032	32
2	230	28.857543120535	33
2	230	28.857543120535	34
2	230	28.857543120535	35
2	247	30.302961569627	36
2	247	30.302961569627	37
2	247	30.302961569627	38
2	263	33.565766434725	39
2	263	33.565766434725	40
2	263	33.565766434725	41
2	282	38.278836001489	42
2	282	38.278836001489	43
2	282	38.278836001489	44
2	299	40.18140891177	45
2	299	40.18140891177	46
2	299	40.18140891177	47
2	318	41.328124004347	48
2	318	41.328124004347	49
2	318	41.328124004347	50
2	335	43.103635281893	51
2	335	43.103635281893	52
2	335	43.103635281893	53
2	354	44.962006630726	54
2	354	44.962006630726	55
2	354	44.962006630726	56
2	367	46.917869459549	57
2	367	46.917869459549	58
2	367	46.917869459549	59
2	393	48.103688194049	60
2	393	48.103688194049	61
2	393	48.103688194049	62
2	409	53.89907249432	63
2	409	53.89907249432	64
2	409	53.89907249432	65
2	441	56.272927461814	66
2	441	56.272927461814	67
2	441	56.272927461814	68
2	455	57.326747305643	69
2	455	57.326747305643	70
2	455	57.326747305643	71
2	484	62.796659226102	72
2	484	62.796659226102	73
2	484	62.796659226102	74
2	501	63.979949977602	75
2	501	63.979949977602	76
2	501	63.979949977602	77
2	516	65.926257096242	78
2	516	65.926257096242	79
2	516	65.926257096242	80
2	541	67.363502696412	81
2	541	67.363502696412	82
2	541	67.363502696412	83
2	557	70.855709379731	84
2	557	70.855709379731	85
2	557	70.855709379731	86
2	575	72.096126148242	87
2	575	72.096126148242	88
2	575	72.096126148242	89
2	589	73.261847436167	90
2	589	73.261847436167	91
2	589	73.261847436167	92
2	603	75.237818878061	93
2	603	75.237818878061	94
2	603	75.237818878061	95
2	627	78.438032087696	96
2	627	78.438032087696	97
2	627	78.438032087696	98
2	645	79.983870717278	99
2	645	79.983870717278	100
2	645	79.983870717278	101
2	660	81.360780724174	102
2	660	81.360780724174	103
2	660	81.360780724174	104
2	679	84.22962691145	105
2	679	84.22962691145	106
2	679	84.22962691145	107
2	697	85.913363159107	108
2	697	85.913363159107	109
2	697	85.913363159107	110
2	713	88.331244479242	111
2	713	88.331244479242	112
2	713	88.331244479242	113
2	739	90.290850487817	114
2	739	90.290850487817	115
2	739	90.290850487817	116
2	754	91.800594368591	117
2	754	91.800594368591	118
2	754	91.800594368591	119
2	772	93.302815875105	120
2	772	93.302815875105	121
2	772	93.302815875105	122
2	785	94.577933754558	123
2	785	94.577933754558	124
2	785	94.577933754558	125
2	804	95.900615010695	126
2	804	95.900615010695	127
2	804	95.900615010695	128
2	821	97.038616098473	129
2	821	97.038616098473	130
2	821	97.038616098473	131
2	837	100.508562769244	132
2	837	100.508562769244	133
2	837	100.508562769244	134
2	861	103.366010648775	135
2	861	103.366010648775	136
2	861	103.366010648775	137
2	887	108.321843762583	138
2	887	108.321843762583	139
2	887	108.321843762583	140
2	906	110.220461821944	141
2	906	110.220461821944	142
2	906	110.220461821944	143
2	925	113.543170778636	144
2	925	113.543170778636	145
2	925	113.543170778636	146
2	939	115.308261551003	147
2	939	115.308261551003	148
2	939	115.308261551003	149
2	961	117.12442004727	150
2	961	117.12442004727	151
2	961	117.12442004727	152
2	972	118.821558168053	153
2	972	118.821558168053	154
2	972	118.821558168053	155
2	990	120.137912824073	156
2	990	120.137912824073	157
2	990	120.137912824073	158
2	1013	123.994701656761	159
2	1013	123.994701656761	160
2	1013	123.994701656761	161
2	1036	129.325739073304	162
2	1036	129.325739073304	163
2	1036	129.325739073304	164
2	1059	131.931632125051	165
2	1059	131.931632125051	166
2	1059	131.931632125051	167
2	1078	133.719056382076	168
2	1078	133.719056382076	169
2	1078	133.719056382076	170
2	1099	138.051145035241	171
2	1099	138.051145035241	172
2	1099	138.051145035241	173
2	1124	141.175716192471	174
2	1124	141.175716192471	175
2	1124	141.175716192471	176
2	1137	142.525876521584	177
2	1137	142.525876521584	178
2	1137	142.525876521584	179
2	1160	145.916847677203	180
2	1160	145.916847677203	181
2	1160	145.916847677203	182
2	1187	148.972973248747	183
2	1187	148.972973248747	184
2	1187	148.972973248747	185
2	1203	151.727352830242	186
2	1203	151.727352830242	187
2	1203	151.727352830242	188
2	1229	156.481441771455	189
2	1229	156.481441771455	190
2	1229	156.481441771455	191
2	1247	160.710926535438	192
2	1247	160.710926535438	193
2	1247	160.710926535438	194
2	1265	161.785440219854	195
2	1265	161.785440219854	196
2	1265	161.785440219854	197
2	1299	165.182360342157	198
2	1299	165.182360342157	199
2	1299	165.182360342157	200
2	1317	166.638301052154	201
2	1317	166.638301052154	202
2	1317	166.638301052154	203
2	1331	167.858078882127	204
2	1331	167.858078882127	205
2	1331	167.858078882127	206
2	1349	169.414447911766	207
2	1349	169.414447911766	208
2	1349	169.414447911766	209
2	1363	171.328693188317	210
2	1363	171.328693188317	211
2	1363	171.328693188317	212
2	1386	173.061717366736	213
2	1386	173.061717366736	214
2	1386	173.061717366736	215
2	1407	180.298648948853	216
2	1407	180.298648948853	217
2	1407	180.298648948853	218
2	1423	184.0979700674	219
2	1423	184.0979700674	220
2	1423	184.0979700674	221
2	1441	186.015433099347	222
2	1441	186.015433099347	223
2	1441	186.015433099347	224
2	1463	187.575199440249	225
2	1463	187.575199440249	226
2	1463	187.575199440249	227
2	1473	189.439719826668	228
2	1473	189.439719826668	229
2	1473	189.439719826668	230
2	1499	190.765652370975	231
2	1499	190.765652370975	232
2	1499	190.765652370975	233
2	1525	199.256593461738	234
2	1525	199.256593461738	235
2	1525	199.256593461738	236
2	1545	202.809212430223	237
2	1545	202.809212430223	238
2	1545	202.809212430223	239
2	1565	205.910125500457	240
2	1565	205.910125500457	241
2	1565	205.910125500457	242
2	1585	209.274128508101	243
2	1585	209.274128508101	244
2	1585	209.274128508101	245
2	1604	210.448011594921	246
2	1604	210.448011594921	247
2	1604	210.448011594921	248
2	1621	212.032712499675	249
2	1621	212.032712499675	250
2	1621	212.032712499675	251
2	1639	213.28627960194	252
2	1639	213.28627960194	253
2	1639	213.28627960194	254
2	1662	214.589289592557	255
2	1662	214.589289592557	256
2	1662	214.589289592557	257
2	1675	215.92437158937	258
2	1675	215.92437158937	259
2	1675	215.92437158937	260
2	1701	217.247522270195	261
2	1701	217.247522270195	262
2	1701	217.247522270195	263
2	1711	218.737244000026	264
2	1711	218.737244000026	265
2	1711	218.737244000026	266
2	1730	219.737056049933	267
2	1730	219.737056049933	268
2	1730	219.737056049933	269
2	1752	221.446619028452	270
2	1752	221.446619028452	271
2	1752	221.446619028452	272
2	1765	223.124971799255	273
2	1765	223.124971799255	274
2	1765	223.124971799255	275
2	1783	224.567912716222	276
2	1783	224.567912716222	277
2	1783	224.567912716222	278
2	1795	227.21337522799	279
2	1795	227.21337522799	280
2	1795	227.21337522799	281
2	1821	228.96280708899	282
2	1821	228.96280708899	283
2	1821	228.96280708899	284
2	1832	230.320664729261	285
2	1832	230.320664729261	286
2	1832	230.320664729261	287
2	1849	232.117748050301	288
2	1849	232.117748050301	289
2	1849	232.117748050301	290
2	1866	234.557694301216	291
2	1866	234.557694301216	292
2	1866	234.557694301216	293
2	1888	236.083219262984	294
2	1888	236.083219262984	295
2	1888	236.083219262984	296
2	1906	237.724197133915	297
2	1906	237.724197133915	298
2	1906	237.724197133915	299
3	8	0.228177698444	0
3	8	0.228177698444	1
3	8	0.228177698444	2
3	29	5.722231548224	3
3	29	5.722231548224	4
3	29	5.722231548224	5
3	51	7.335502450412	6
3	51	7.335502450412	7
3	51	7.335502450412	8
3	61	8.958281265732	9
3	61	8.958281265732	10
3	61	8.958281265732	11
3	83	10.82639443624	12
3	83	10.82639443624	13
3	83	10.82639443624	14
3	94	11.994768495948	15
3	94	11.994768495948	16
3	94	11.994768495948	17
3	107	13.560645770824	18
3	107	13.560645770824	19
3	107	13.560645770824	20
3	121	15.532352867454	21
3	121	15.532352867454	22
3	121	15.532352867454	23
3	135	17.183712255375	24
3	135	17.183712255375	25
3	135	17.183712255375	26
3	145	18.913945268956	27
3	145	18.913945268956	28
3	145	18.913945268956	29
3	156	20.010772594029	30
3	156	20.010772594029	31
3	156	20.010772594029	32
3	173	21.951481290556	33
3	173	21.951481290556	34
3	173	21.951481290556	35
3	198	25.813702329579	36
3	198	25.813702329579	37
3	198	25.813702329579	38
3	216	27.814159736146	39
3	216	27.814159736146	40
3	216	27.814159736146	41
3	229	28.855975338788	42
3	229	28.855975338788	43
3	229	28.855975338788	44
3	259	33.549944279929	45
3	259	33.549944279929	46
3	259	33.549944279929	47
3	281	38.26886098223	48
3	281	38.26886098223	49
3	281	38.26886098223	50
3	307	40.227525913428	51
3	307	40.227525913428	52
3	307	40.227525913428	53
3	317	41.326398445313	54
3	317	41.326398445313	55
3	317	41.326398445313	56
3	339	43.114588399702	57
3	339	43.114588399702	58
3	339	43.114588399702	59
3	353	44.960469446706	60
3	353	44.960469446706	61
3	353	44.960469446706	62
3	371	46.933759587305	63
3	371	46.933759587305	64
3	371	46.933759587305	65
3	385	48.074389510164	66
3	385	48.074389510164	67
3	385	48.074389510164	68
3	410	53.900916709425	69
3	410	53.900916709425	70
3	410	53.900916709425	71
3	427	55.184126946496	72
3	427	55.184126946496	73
3	427	55.184126946496	74
3	437	56.236999810587	75
3	437	56.236999810587	76
3	437	56.236999810587	77
3	456	57.335549616138	78
3	456	57.335549616138	79
3	456	57.335549616138	80
3	479	62.776549529601	81
3	479	62.776549529601	82
3	479	62.776549529601	83
3	497	63.964643741815	84
3	497	63.964643741815	85
3	497	63.964643741815	86
3	515	65.916333015118	87
3	515	65.916333015118	88
3	515	65.916333015118	89
3	533	67.336985992727	90
3	533	67.336985992727	91
3	533	67.336985992727	92
3	553	70.840038184106	93
3	553	70.840038184106	94
3	553	70.840038184106	95
3	571	72.078530090552	96
3	571	72.078530090552	97
3	571	72.078530090552	98
3	599	75.225549603165	99
3	599	75.225549603165	100
3	599	75.225549603165	101
3	623	78.42775734379	102
3	623	78.42775734379	103
3	623	78.42775734379	104
3	641	79.972564504427	105
3	641	79.972564504427	106
3	641	79.972564504427	107
3	659	81.360766402899	108
3	659	81.360766402899	109
3	659	81.360766402899	110
3	680	84.234494253096	111
3	680	84.234494253096	112
3	680	84.234494253096	113
3	693	85.902727059283	114
3	693	85.902727059283	115
3	693	85.902727059283	116
3	718	88.34851662386	117
3	718	88.34851662386	118
3	718	88.34851662386	119
3	731	90.256319616569	120
3	731	90.256319616569	121
3	731	90.256319616569	122
3	749	91.77933145187	123
3	749	91.77933145187	124
3	749	91.77933145187	125
3	767	93.289417709948	126
3	767	93.289417709948	127
3	767	93.289417709948	128
3	789	94.59381160421	129
3	789	94.59381160421	130
3	789	94.59381160421	131
3	803	95.900032773692	132
3	803	95.900032773692	133
3	803	95.900032773692	134
3	822	97.043026274735	135
3	822	97.043026274735	136
3	822	97.043026274735	137
3	838	100.511734464001	138
3	838	100.511734464001	139
3	838	100.511734464001	140
3	869	103.393088553323	141
3	869	103.393088553323	142
3	869	103.393088553323	143
3	883	108.309246675516	144
3	883	108.309246675516	145
3	883	108.309246675516	146
3	901	110.194388343645	147
3	901	110.194388343645	148
3	901	110.194388343645	149
3	926	113.548144913949	150
3	926	113.548144913949	151
3	926	113.548144913949	152
3	940	115.312577693218	153
3	940	115.312577693218	154
3	940	115.312577693218	155
3	957	117.102845577875	156
3	957	117.102845577875	157
3	957	117.102845577875	158
3	971	118.816336754805	159
3	971	118.816336754805	160
3	971	118.816336754805	161
3	989	120.133728195107	162
3	989	120.133728195107	163
3	989	120.133728195107	164
3	1021	124.02705083057	165
3	1021	124.02705083057	166
3	1021	124.02705083057	167
3	1035	129.321665074407	168
3	1035	129.321665074407	169
3	1035	129.321665074407	170
3	1063	131.957328993832	171
3	1063	131.957328993832	172
3	1063	131.957328993832	173
3	1077	133.717525614809	174
3	1077	133.717525614809	175
3	1077	133.717525614809	176
3	1103	138.0702982285	177
3	1103	138.0702982285	178
3	1103	138.0702982285	179
3	1119	141.155398216537	180
3	1119	141.155398216537	181
3	1119	141.155398216537	182
3	1138	142.534786161241	183
3	1138	142.534786161241	184
3	1138	142.534786161241	185
3	1159	145.91313794419	186
3	1159	145.91313794419	187
3	1159	145.91313794419	188
3	1177	147.482279871133	189
3	1177	147.482279871133	190
3	1177	147.482279871133	191
3	1204	151.727632585732	192
3	1204	151.727632585732	193
3	1204	151.727632585732	194
3	1233	156.495875042638	195
3	1233	156.495875042638	196
3	1233	156.495875042638	197
3	1251	160.730479961128	198
3	1251	160.730479961128	199
3	1251	160.730479961128	200
3	1273	161.832330279276	201
3	1273	161.832330279276	202
3	1273	161.832330279276	203
3	1285	163.949657322301	204
3	1285	163.949657322301	205
3	1285	163.949657322301	206
3	1300	165.183960056786	207
3	1300	165.183960056786	208
3	1300	165.183960056786	209
3	1321	166.653018949256	210
3	1321	166.653018949256	211
3	1321	166.653018949256	212
3	1335	167.889182168466	213
3	1335	167.889182168466	214
3	1335	167.889182168466	215
3	1353	169.442440951351	216
3	1353	169.442440951351	217
3	1353	169.442440951351	218
3	1371	171.358409961446	219
3	1371	171.358409961446	220
3	1371	171.358409961446	221
3	1381	173.038647938225	222
3	1381	173.038647938225	223
3	1381	173.038647938225	224
3	1419	184.065652725221	225
3	1419	184.065652725221	226
3	1419	184.065652725221	227
3	1437	185.99812305283	228
3	1437	185.99812305283	229
3	1437	185.99812305283	230
3	1455	187.540185409569	231
3	1455	187.540185409569	232
3	1455	187.540185409569	233
3	1478	189.461271340957	234
3	1478	189.461271340957	235
3	1478	189.461271340957	236
3	1491	190.730317053745	237
3	1491	190.730317053745	238
3	1491	190.730317053745	239
3	1526	199.260781978585	240
3	1526	199.260781978585	241
3	1526	199.260781978585	242
3	1550	202.826286731167	243
3	1550	202.826286731167	244
3	1550	202.826286731167	245
3	1573	205.950384795035	246
3	1573	205.950384795035	247
3	1573	205.950384795035	248
3	1589	209.294146023774	249
3	1589	209.294146023774	250
3	1589	209.294146023774	251
3	1603	210.447880537094	252
3	1603	210.447880537094	253
3	1603	210.447880537094	254
3	1625	212.051582092838	255
3	1625	212.051582092838	256
3	1625	212.051582092838	257
3	1644	213.310834887675	258
3	1644	213.310834887675	259
3	1644	213.310834887675	260
3	1657	214.568833428277	261
3	1657	214.568833428277	262
3	1657	214.568833428277	263
3	1679	215.938174418894	264
3	1679	215.938174418894	265
3	1679	215.938174418894	266
3	1693	217.225206993434	267
3	1693	217.225206993434	268
3	1693	217.225206993434	269
3	1712	218.744545282036	270
3	1712	218.744545282036	271
3	1712	218.744545282036	272
3	1729	219.729952350497	273
3	1729	219.729952350497	274
3	1729	219.729952350497	275
3	1747	221.429132396695	276
3	1747	221.429132396695	277
3	1747	221.429132396695	278
3	1769	223.135708646391	279
3	1769	223.135708646391	280
3	1769	223.135708646391	281
3	1803	227.246861153444	282
3	1803	227.246861153444	283
3	1803	227.246861153444	284
3	1813	228.920370605643	285
3	1813	228.920370605643	286
3	1813	228.920370605643	287
3	1831	230.31270449602	288
3	1831	230.31270449602	289
3	1831	230.31270449602	290
3	1865	234.547740066195	291
3	1865	234.547740066195	292
3	1865	234.547740066195	293
3	1883	236.068520026322	294
3	1883	236.068520026322	295
3	1883	236.068520026322	296
3	1901	237.696761699288	297
3	1901	237.696761699288	298
3	1901	237.696761699288	299
4	47	7.317283189234	0
4	47	7.317283189234	1
4	47	7.317283189234	2
4	65	8.971305461497	3
4	65	8.971305461497	4
4	65	8.971305461497	5
4	122	15.535203074645	6
4	122	15.535203074645	7
4	122	15.535203074645	8
4	163	20.021935888797	9
4	163	20.021935888797	10
4	163	20.021935888797	11
4	181	21.97199212287	12
4	181	21.97199212287	13
4	181	21.97199212287	14
4	215	27.812308063845	15
4	215	27.812308063845	16
4	215	27.812308063845	17
4	237	28.890926340103	18
4	237	28.890926340103	19
4	237	28.890926340103	20
4	264	33.570927155288	21
4	264	33.570927155288	22
4	264	33.570927155288	23
4	286	38.286112969672	24
4	286	38.286112969672	25
4	286	38.286112969672	26
4	303	40.20488136898	27
4	303	40.20488136898	28
4	303	40.20488136898	29
4	325	41.339888809496	30
4	325	41.339888809496	31
4	325	41.339888809496	32
4	340	43.121778989819	33
4	340	43.121778989819	34
4	340	43.121778989819	35
4	375	46.953222251596	36
4	375	46.953222251596	37
4	375	46.953222251596	38
4	389	48.0896316971	39
4	389	48.0896316971	40
4	389	48.0896316971	41
4	417	53.913591805854	42
4	417	53.913591805854	43
4	417	53.913591805854	44
4	445	56.293159567535	45
4	445	56.293159567535	46
4	445	56.293159567535	47
4	463	57.356855732322	48
4	463	57.356855732322	49
4	463	57.356855732322	50
4	483	62.794928229932	51
4	483	62.794928229932	52
4	483	62.794928229932	53
4	502	63.984648363432	54
4	502	63.984648363432	55
4	502	63.984648363432	56
4	523	65.948316211229	57
4	523	65.948316211229	58
4	523	65.948316211229	59
4	537	67.352794880704	60
4	537	67.352794880704	61
4	537	67.352794880704	62
4	558	70.856790002591	63
4	558	70.856790002591	64
4	558	70.856790002591	65
4	579	72.12217737512	66
4	579	72.12217737512	67
4	579	72.12217737512	68
4	604	75.245918615544	69
4	604	75.245918615544	70
4	604	75.245918615544	71
4	628	78.444991515731	72
4	628	78.444991515731	73
4	628	78.444991515731	74
4	649	80.007547375161	75
4	649	80.007547375161	76
4	649	80.007547375161	77
4	667	81.377930487332	78
4	667	81.377930487332	79
4	667	81.377930487332	80
4	698	85.914325543191	81
4	698	85.914325543191	82
4	698	85.914325543191	83
4	717	88.347914734911	84
4	717	88.347914734911	85
4	717	88.347914734911	86
4	735	90.270215450725	87
4	735	90.270215450725	88
4	735	90.270215450725	89
4	753	91.794649678466	90
4	753	91.794649678466	91
4	753	91.794649678466	92
4	771	93.300270174078	93
4	771	93.300270174078	94
4	771	93.300270174078	95
4	790	94.599754057387	96
4	790	94.599754057387	97
4	790	94.599754057387	98
4	808	95.910235429162	99
4	808	95.910235429162	100
4	808	95.910235429162	101
4	845	100.546072766147	102
4	845	100.546072766147	103
4	845	100.546072766147	104
4	865	103.382628839588	105
4	865	103.382628839588	106
4	865	103.382628839588	107
4	891	108.33313018007	108
4	891	108.33313018007	109
4	891	108.33313018007	110
4	905	110.215937911462	111
4	905	110.215937911462	112
4	905	110.215937911462	113
4	947	115.334873193792	114
4	947	115.334873193792	115
4	947	115.334873193792	116
4	979	118.840925273981	117
4	979	118.840925273981	118
4	979	118.840925273981	119
4	997	120.21564174004	120
4	997	120.21564174004	121
4	997	120.21564174004	122
4	1017	124.010772872836	123
4	1017	124.010772872836	124
4	1017	124.010772872836	125
4	1043	129.351362396685	126
4	1043	129.351362396685	127
4	1043	129.351362396685	128
4	1064	131.959632212324	129
4	1064	131.959632212324	130
4	1064	131.959632212324	131
4	1085	133.733958421918	132
4	1085	133.733958421918	133
4	1085	133.733958421918	134
4	1107	138.118612541736	135
4	1107	138.118612541736	136
4	1107	138.118612541736	137
4	1123	141.165880308601	138
4	1123	141.165880308601	139
4	1123	141.165880308601	140
4	1145	142.550498008665	141
4	1145	142.550498008665	142
4	1145	142.550498008665	143
4	1167	145.929052650384	144
4	1167	145.929052650384	145
4	1167	145.929052650384	146
4	1191	149.001487878715	147
4	1191	149.001487878715	148
4	1191	149.001487878715	149
4	1211	151.751309579903	150
4	1211	151.751309579903	151
4	1211	151.751309579903	152
4	1255	160.745825789295	153
4	1255	160.745825789295	154
4	1255	160.745825789295	155
4	1269	161.814606267297	156
4	1269	161.814606267297	157
4	1269	161.814606267297	158
4	1289	163.970800242277	159
4	1289	163.970800242277	160
4	1289	163.970800242277	161
4	1307	165.201063200526	162
4	1307	165.201063200526	163
4	1307	165.201063200526	164
4	1339	167.915170389774	165
4	1339	167.915170389774	166
4	1339	167.915170389774	167
4	1367	171.340533983246	168
4	1367	171.340533983246	169
4	1367	171.340533983246	170
4	1385	173.05717006883	171
4	1385	173.05717006883	172
4	1385	173.05717006883	173
4	1427	184.111682728052	174
4	1427	184.111682728052	175
4	1427	184.111682728052	176
4	1442	186.022431542133	177
4	1442	186.022431542133	178
4	1442	186.022431542133	179
4	1459	187.564423826571	180
4	1459	187.564423826571	181
4	1459	187.564423826571	182
4	1477	189.453441806008	183
4	1477	189.453441806008	184
4	1477	189.453441806008	185
4	1495	190.746083264206	186
4	1495	190.746083264206	187
4	1495	190.746083264206	188
4	1530	199.269549466063	189
4	1530	199.269549466063	190
4	1530	199.269549466063	191
4	1549	202.819775042071	192
4	1549	202.819775042071	193
4	1549	202.819775042071	194
4	1569	205.923862388151	195
4	1569	205.923862388151	196
4	1569	205.923862388151	197
4	1593	209.315262890634	198
4	1593	209.315262890634	199
4	1593	209.315262890634	200
4	1611	210.476597707196	201
4	1611	210.476597707196	202
4	1611	210.476597707196	203
4	1629	212.070157072838	204
4	1629	212.070157072838	205
4	1629	212.070157072838	206
4	1643	213.30422846773	207
4	1643	213.30422846773	208
4	1643	213.30422846773	209
4	1661	214.581834194683	210
4	1661	214.581834194683	211
4	1661	214.581834194683	212
4	1683	215.999523804978	213
4	1683	215.999523804978	214
4	1683	215.999523804978	215
4	1697	217.235610100986	216
4	1697	217.235610100986	217
4	1697	217.235610100986	218
4	1716	218.74899505378	219
4	1716	218.74899505378	220
4	1716	218.74899505378	221
4	1737	219.749348257198	222
4	1737	219.749348257198	223
4	1737	219.749348257198	224
4	1751	221.445733031068	225
4	1751	221.445733031068	226
4	1751	221.445733031068	227
4	1773	223.14592061628	228
4	1773	223.14592061628	229
4	1773	223.14592061628	230
4	1799	227.230282673704	231
4	1799	227.230282673704	232
4	1799	227.230282673704	233
4	1817	228.941336840673	234
4	1817	228.941336840673	235
4	1817	228.941336840673	236
4	1839	230.339240059	237
4	1839	230.339240059	238
4	1839	230.339240059	239
4	1853	232.134308127983	240
4	1853	232.134308127983	241
4	1853	232.134308127983	242
4	1873	234.572018352462	243
4	1873	234.572018352462	244
4	1873	234.572018352462	245
4	1887	236.07985881933	246
4	1887	236.07985881933	247
4	1887	236.07985881933	248
4	1905	237.714555281294	249
4	1905	237.714555281294	250
4	1905	237.714555281294	251
5	128	15.545203074645	0
5	166	20.031935888797	1
5	184	21.98199212287	2
5	219	27.822308063845	3
5	240	28.900926340103	4
5	270	33.580927155288	5
5	328	41.349888809496	6
5	346	43.131778989819	7
5	378	46.963222251596	8
5	392	48.0996316971	9
5	448	56.303159567535	10
5	540	67.362794880704	11
5	564	70.866790002591	12
5	582	72.13217737512	13
5	652	80.017547375161	14
5	670	81.387930487332	15
5	704	85.924325543191	16
5	721	88.357914734911	17
5	738	90.280215450725	18
5	757	91.804649678466	19
5	796	94.609754057387	20
5	814	95.920235429162	21
5	848	100.556072766147	22
5	868	103.392628839588	23
5	894	108.34313018007	24
5	950	115.344873193792	25
5	1000	120.22564174004	26
5	1070	131.969632212324	27
5	1088	133.743958421918	28
5	1148	142.560498008665	29
5	1258	160.755825789295	30
5	1272	161.824606267297	31
5	1292	163.980800242277	32
5	1310	165.211063200526	33
5	1342	167.925170389774	34
5	1370	171.350533983246	35
5	1430	184.121682728052	36
5	1462	187.574423826571	37
5	1481	189.463441806008	38
5	1498	190.756083264206	39
5	1536	199.279549466063	40
5	1553	202.829775042071	41
5	1572	205.933862388151	42
5	1614	210.486597707196	43
5	1647	213.31422846773	44
5	1665	214.591834194683	45
5	1686	216.009523804978	46
5	1700	217.245610100986	47
5	1740	219.759348257198	48
5	1776	223.15592061628	49
5	1802	227.240282673704	50
5	1820	228.951336840673	51
5	1842	230.349240059	52
5	1856	232.144308127983	53
5	1876	234.582018352462	54
5	1891	236.08985881933	55
5	1909	237.724555281294	56

