version 2
run General-1-20230921-21:33:47-5605
attr configname General
attr datetime 20230921-21:33:47
attr experiment General
attr inifile omnetpp.ini
attr iterationvars ""
attr iterationvarsf ""
attr measurement ""
attr network Network1
attr processid 5605
attr repetition 1
attr replication #1
attr resultdir results
attr runnumber 1
attr seedset 1
param Network1.node[*].transmissionTime "uniform(1s, 2s)"
param Network1.node[*].delayTime "uniform(0.01s, 0.2s)"
param Network1.node[*].processingTime exponential(0.01s)
param Network1.node[*].lossProbability 0.3

vector 0 Network1.node[0] txVector ETV
vector 1 Network1.node[1] txVector ETV
vector 2 Network1.node[3] txVector ETV
vector 3 Network1.node[2] txVector ETV
vector 4 Network1.node[4] txVector ETV
vector 5 Network1.node[5] rxVector ETV
0	1	0.089234179703	0
0	11	2.086418987836	1
0	13	3.482999713977	2
0	31	4.870910454194	3
0	49	6.784872476595	4
0	67	8.649892721909	5
0	85	9.847443615437	6
0	95	11.293578116108	7
0	97	13.196948287428	8
0	99	14.316438761192	9
0	101	15.841238144205	10
0	119	16.924861149515	11
0	121	18.155876570965	12
0	135	19.68932506384	13
0	153	21.481728643064	14
0	171	22.842989666505	15
0	181	24.595778016724	16
0	199	26.382729490638	17
0	217	27.535659313087	18
0	235	29.086984251744	19
0	241	30.136288497482	20
0	243	31.532601785731	21
0	245	32.63996709406	22
0	247	34.149777372252	23
0	257	35.251912604669	24
0	259	36.48553513235	25
0	277	37.57709157269	26
0	295	39.328964542016	27
0	301	40.364963977715	28
0	307	41.659323449597	29
0	309	42.733292447521	30
0	327	43.885429604795	31
0	329	45.778450816522	32
0	331	47.537799615764	33
0	333	49.18892018113	34
0	347	50.228603683065	35
0	365	51.737392421698	36
0	367	52.899597932936	37
0	369	54.256061614842	38
0	387	55.351369426471	39
0	405	57.088180888795	40
0	423	58.096183599557	41
0	425	59.131031323808	42
0	427	60.48560855759	43
0	429	61.56412852707	44
0	447	63.257313725191	45
0	465	64.791691061926	46
0	467	66.368758694853	47
0	485	67.495284853156	48
0	487	69.039182090086	49
0	493	70.230442360162	50
0	511	71.246315339931	51
0	529	72.455808220782	52
0	547	73.46047153359	53
0	565	74.628302332365	54
0	567	76.145896319651	55
0	569	77.162359084121	56
0	587	78.461159308094	57
0	601	80.272930821755	58
0	619	82.138020458051	59
0	637	83.277300507414	60
0	655	84.950447786485	61
0	673	86.630887853333	62
0	691	88.023828120788	63
0	709	89.747192872574	64
0	727	91.419527432069	65
0	745	92.830881839737	66
0	763	94.408161286384	67
0	769	95.678042577699	68
0	771	96.903433053641	69
0	777	98.55018696783	70
0	791	100.430040072537	71
0	809	101.59572971275	72
0	827	102.9678173865	73
0	845	104.42634056474	74
0	847	106.106359711037	75
0	865	107.690319499354	76
0	879	109.361251511964	77
0	897	111.080340872173	78
0	899	112.158119745905	79
0	901	113.773423977782	80
0	919	115.611227845428	81
0	921	117.100927454773	82
0	939	118.990302203111	83
0	957	120.76261753601	84
0	975	121.906560382228	85
0	993	123.801256990879	86
0	1011	125.375601213313	87
0	1029	127.328722217473	88
0	1035	128.467436837618	89
0	1053	130.050875368648	90
0	1055	131.244335939762	91
0	1073	132.312767000058	92
0	1091	133.369060669215	93
0	1109	134.480960427671	94
0	1127	135.620591682502	95
0	1145	137.595582992191	96
0	1163	139.21817156731	97
0	1181	140.465092052825	98
0	1187	142.44157303579	99
0	1189	143.624167324396	100
0	1191	145.165459902611	101
0	1193	146.438158770211	102
0	1199	147.931427037463	103
0	1217	149.85212438193	104
0	1235	151.325961485392	105
0	1253	153.260916112111	106
0	1271	155.073871860401	107
0	1281	156.864852021802	108
0	1299	157.941021243464	109
0	1317	159.547463016938	110
0	1319	160.616858980739	111
0	1337	162.148317302931	112
0	1339	164.130372890392	113
0	1357	166.058430528389	114
0	1375	167.319728690786	115
0	1381	168.917326614381	116
0	1399	170.622210919977	117
0	1401	171.823518131514	118
0	1403	172.945672205537	119
0	1421	174.57534362155	120
0	1439	175.888667237833	121
0	1457	177.014163322169	122
0	1463	178.826961036892	123
0	1481	179.955474455729	124
0	1483	181.513552999012	125
0	1497	182.576062132492	126
0	1515	184.435613903105	127
0	1529	185.503681668434	128
0	1531	186.637835193313	129
0	1549	188.346652493234	130
0	1551	189.998197624115	131
0	1569	191.141904297871	132
0	1587	192.666776467235	133
0	1589	193.729486652305	134
0	1607	194.987098878836	135
0	1625	196.5416544847	136
0	1643	197.835807030676	137
0	1661	198.868767827638	138
0	1679	200.371424525166	139
0	1681	202.064511608919	140
0	1699	203.726673589442	141
0	1717	204.917213014215	142
0	1735	206.3882175308	143
0	1737	207.706082777707	144
0	1743	209.194365097797	145
0	1761	211.143201981094	146
0	1763	212.234189954475	147
0	1781	213.238033771171	148
0	1799	214.247352832817	149
0	1801	215.475770573486	150
0	1815	216.91196223151	151
0	1833	218.677965315646	152
0	1851	220.033210052299	153
0	1861	221.643275135086	154
0	1879	223.39241776418	155
0	1881	225.158636443671	156
0	1883	227.138213654636	157
0	1901	228.964246902271	158
0	1919	230.908505872247	159
0	1937	232.199854101642	160
0	1951	233.542049360118	161
0	1969	234.938502851064	162
0	1987	236.29684258963	163
0	2005	237.83968917246	164
0	2023	239.261531243688	165
1	3	0.126198958082	0
1	3	0.126198958082	1
1	3	0.126198958082	2
1	15	3.504078647435	3
1	15	3.504078647435	4
1	15	3.504078647435	5
1	33	4.887020686304	6
1	33	4.887020686304	7
1	33	4.887020686304	8
1	51	6.812541988781	9
1	51	6.812541988781	10
1	51	6.812541988781	11
1	69	8.663312410074	12
1	69	8.663312410074	13
1	69	8.663312410074	14
1	87	9.859955503992	15
1	87	9.859955503992	16
1	87	9.859955503992	17
1	103	15.876110598152	18
1	103	15.876110598152	19
1	103	15.876110598152	20
1	123	18.195821528067	21
1	123	18.195821528067	22
1	123	18.195821528067	23
1	137	19.69962760829	24
1	137	19.69962760829	25
1	137	19.69962760829	26
1	155	21.50019182625	27
1	155	21.50019182625	28
1	155	21.50019182625	29
1	173	22.874304750823	30
1	173	22.874304750823	31
1	173	22.874304750823	32
1	183	24.60644013408	33
1	183	24.60644013408	34
1	183	24.60644013408	35
1	201	26.401372023666	36
1	201	26.401372023666	37
1	201	26.401372023666	38
1	219	27.546385896341	39
1	219	27.546385896341	40
1	219	27.546385896341	41
1	237	29.104300260632	42
1	237	29.104300260632	43
1	237	29.104300260632	44
1	249	34.163184232933	45
1	249	34.163184232933	46
1	249	34.163184232933	47
1	261	36.503976383356	48
1	261	36.503976383356	49
1	261	36.503976383356	50
1	279	37.592674460494	51
1	279	37.592674460494	52
1	279	37.592674460494	53
1	297	39.349587068997	54
1	297	39.349587068997	55
1	297	39.349587068997	56
1	303	40.379439587396	57
1	303	40.379439587396	58
1	303	40.379439587396	59
1	311	42.745055268189	60
1	311	42.745055268189	61
1	311	42.745055268189	62
1	335	49.215733622177	63
1	335	49.215733622177	64
1	335	49.215733622177	65
1	349	50.241032685872	66
1	349	50.241032685872	67
1	349	50.241032685872	68
1	371	54.267607857841	69
1	371	54.267607857841	70
1	371	54.267607857841	71
1	389	55.363177526822	72
1	389	55.363177526822	73
1	389	55.363177526822	74
1	407	57.124265296714	75
1	407	57.124265296714	76
1	407	57.124265296714	77
1	431	61.574256468707	78
1	431	61.574256468707	79
1	431	61.574256468707	80
1	449	63.270619297558	81
1	449	63.270619297558	82
1	449	63.270619297558	83
1	469	66.408724682772	84
1	469	66.408724682772	85
1	469	66.408724682772	86
1	489	69.05806981699	87
1	489	69.05806981699	88
1	489	69.05806981699	89
1	495	70.240952251622	90
1	495	70.240952251622	91
1	495	70.240952251622	92
1	513	71.26171758894	93
1	513	71.26171758894	94
1	513	71.26171758894	95
1	531	72.468876235051	96
1	531	72.468876235051	97
1	531	72.468876235051	98
1	549	73.475937352821	99
1	549	73.475937352821	100
1	549	73.475937352821	101
1	571	77.180140026413	102
1	571	77.180140026413	103
1	571	77.180140026413	104
1	589	78.481273309285	105
1	589	78.481273309285	106
1	589	78.481273309285	107
1	603	80.283690169198	108
1	603	80.283690169198	109
1	603	80.283690169198	110
1	621	82.155792369043	111
1	621	82.155792369043	112
1	621	82.155792369043	113
1	639	83.287871072655	114
1	639	83.287871072655	115
1	639	83.287871072655	116
1	657	84.962146383768	117
1	657	84.962146383768	118
1	657	84.962146383768	119
1	675	86.641730191854	120
1	675	86.641730191854	121
1	675	86.641730191854	122
1	693	88.04806816618	123
1	693	88.04806816618	124
1	693	88.04806816618	125
1	711	89.7722852805	126
1	711	89.7722852805	127
1	711	89.7722852805	128
1	729	91.46335508417	129
1	729	91.46335508417	130
1	729	91.46335508417	131
1	747	92.865831203178	132
1	747	92.865831203178	133
1	747	92.865831203178	134
1	765	94.42483106663	135
1	765	94.42483106663	136
1	765	94.42483106663	137
1	773	96.93883305095	138
1	773	96.93883305095	139
1	773	96.93883305095	140
1	779	98.566456961817	141
1	779	98.566456961817	142
1	779	98.566456961817	143
1	793	100.447031655297	144
1	793	100.447031655297	145
1	793	100.447031655297	146
1	811	101.606594614732	147
1	811	101.606594614732	148
1	811	101.606594614732	149
1	829	102.991125306345	150
1	829	102.991125306345	151
1	829	102.991125306345	152
1	849	106.124881632055	153
1	849	106.124881632055	154
1	849	106.124881632055	155
1	867	107.701221553654	156
1	867	107.701221553654	157
1	867	107.701221553654	158
1	881	109.382902754757	159
1	881	109.382902754757	160
1	881	109.382902754757	161
1	903	113.795331430993	162
1	903	113.795331430993	163
1	903	113.795331430993	164
1	923	117.13168276801	165
1	923	117.13168276801	166
1	923	117.13168276801	167
1	941	119.001629292311	168
1	941	119.001629292311	169
1	941	119.001629292311	170
1	959	120.776267462413	171
1	959	120.776267462413	172
1	959	120.776267462413	173
1	977	121.918848013424	174
1	977	121.918848013424	175
1	977	121.918848013424	176
1	995	123.816018767664	177
1	995	123.816018767664	178
1	995	123.816018767664	179
1	1013	125.387426194859	180
1	1013	125.387426194859	181
1	1013	125.387426194859	182
1	1031	127.353801794886	183
1	1031	127.353801794886	184
1	1031	127.353801794886	185
1	1037	128.503764941453	186
1	1037	128.503764941453	187
1	1037	128.503764941453	188
1	1057	131.275509949028	189
1	1057	131.275509949028	190
1	1057	131.275509949028	191
1	1075	132.326750199386	192
1	1075	132.326750199386	193
1	1075	132.326750199386	194
1	1093	133.382815092175	195
1	1093	133.382815092175	196
1	1093	133.382815092175	197
1	1111	134.491142789979	198
1	1111	134.491142789979	199
1	1111	134.491142789979	200
1	1129	135.642562883269	201
1	1129	135.642562883269	202
1	1129	135.642562883269	203
1	1147	137.611709747718	204
1	1147	137.611709747718	205
1	1147	137.611709747718	206
1	1165	139.231046650366	207
1	1165	139.231046650366	208
1	1165	139.231046650366	209
1	1183	140.475683686635	210
1	1183	140.475683686635	211
1	1183	140.475683686635	212
1	1195	146.461399216961	213
1	1195	146.461399216961	214
1	1195	146.461399216961	215
1	1201	147.952216986325	216
1	1201	147.952216986325	217
1	1201	147.952216986325	218
1	1219	149.868755291895	219
1	1219	149.868755291895	220
1	1219	149.868755291895	221
1	1237	151.34356883744	222
1	1237	151.34356883744	223
1	1237	151.34356883744	224
1	1255	153.303161937498	225
1	1255	153.303161937498	226
1	1255	153.303161937498	227
1	1273	155.097699760168	228
1	1273	155.097699760168	229
1	1273	155.097699760168	230
1	1283	156.897151304072	231
1	1283	156.897151304072	232
1	1283	156.897151304072	233
1	1301	157.974074427023	234
1	1301	157.974074427023	235
1	1301	157.974074427023	236
1	1321	160.635632080848	237
1	1321	160.635632080848	238
1	1321	160.635632080848	239
1	1341	164.144462688996	240
1	1341	164.144462688996	241
1	1341	164.144462688996	242
1	1359	166.071029311844	243
1	1359	166.071029311844	244
1	1359	166.071029311844	245
1	1377	167.332952583892	246
1	1377	167.332952583892	247
1	1377	167.332952583892	248
1	1383	168.931761308931	249
1	1383	168.931761308931	250
1	1383	168.931761308931	251
1	1405	172.985620539547	252
1	1405	172.985620539547	253
1	1405	172.985620539547	254
1	1423	174.608872945925	255
1	1423	174.608872945925	256
1	1423	174.608872945925	257
1	1441	175.900073821254	258
1	1441	175.900073821254	259
1	1441	175.900073821254	260
1	1459	177.049178448196	261
1	1459	177.049178448196	262
1	1459	177.049178448196	263
1	1465	178.850258806588	264
1	1465	178.850258806588	265
1	1465	178.850258806588	266
1	1485	181.529335472311	267
1	1485	181.529335472311	268
1	1485	181.529335472311	269
1	1499	182.595596679423	270
1	1499	182.595596679423	271
1	1499	182.595596679423	272
1	1517	184.450501261045	273
1	1517	184.450501261045	274
1	1517	184.450501261045	275
1	1533	186.649498259151	276
1	1533	186.649498259151	277
1	1533	186.649498259151	278
1	1553	190.011922294945	279
1	1553	190.011922294945	280
1	1553	190.011922294945	281
1	1571	191.155217669719	282
1	1571	191.155217669719	283
1	1571	191.155217669719	284
1	1591	193.748448812979	285
1	1591	193.748448812979	286
1	1591	193.748448812979	287
1	1609	195.005319588203	288
1	1609	195.005319588203	289
1	1609	195.005319588203	290
1	1627	196.559453997079	291
1	1627	196.559453997079	292
1	1627	196.559453997079	293
1	1645	197.852386715613	294
1	1645	197.852386715613	295
1	1645	197.852386715613	296
1	1663	198.880578641922	297
1	1663	198.880578641922	298
1	1663	198.880578641922	299
1	1683	202.092112915717	300
1	1683	202.092112915717	301
1	1683	202.092112915717	302
1	1701	203.756413000132	303
1	1701	203.756413000132	304
1	1701	203.756413000132	305
1	1719	204.93495626918	306
1	1719	204.93495626918	307
1	1719	204.93495626918	308
1	1739	207.716730462708	309
1	1739	207.716730462708	310
1	1739	207.716730462708	311
1	1745	209.218303756031	312
1	1745	209.218303756031	313
1	1745	209.218303756031	314
1	1765	212.275755465925	315
1	1765	212.275755465925	316
1	1765	212.275755465925	317
1	1783	213.28382638718	318
1	1783	213.28382638718	319
1	1783	213.28382638718	320
1	1803	215.492925437793	321
1	1803	215.492925437793	322
1	1803	215.492925437793	323
1	1817	216.93249363667	324
1	1817	216.93249363667	325
1	1817	216.93249363667	326
1	1835	218.690404239632	327
1	1835	218.690404239632	328
1	1835	218.690404239632	329
1	1853	220.055330873914	330
1	1853	220.055330873914	331
1	1853	220.055330873914	332
1	1863	221.673175975397	333
1	1863	221.673175975397	334
1	1863	221.673175975397	335
1	1885	227.150268348614	336
1	1885	227.150268348614	337
1	1885	227.150268348614	338
1	1903	228.977877380493	339
1	1903	228.977877380493	340
1	1903	228.977877380493	341
1	1921	230.92092773056	342
1	1921	230.92092773056	343
1	1921	230.92092773056	344
1	1939	232.225619589495	345
1	1939	232.225619589495	346
1	1939	232.225619589495	347
1	1953	233.565538500812	348
1	1953	233.565538500812	349
1	1953	233.565538500812	350
1	1971	234.950033890026	351
1	1971	234.950033890026	352
1	1971	234.950033890026	353
1	1989	236.309716617832	354
1	1989	236.309716617832	355
1	1989	236.309716617832	356
1	2007	237.851320503691	357
1	2007	237.851320503691	358
1	2007	237.851320503691	359
1	2025	239.273331159485	360
1	2025	239.273331159485	361
1	2025	239.273331159485	362
2	7	0.205690100955	0
2	7	0.205690100955	1
2	7	0.205690100955	2
2	19	3.519512041221	3
2	19	3.519512041221	4
2	19	3.519512041221	5
2	38	4.899228418473	6
2	38	4.899228418473	7
2	38	4.899228418473	8
2	59	6.844043007882	9
2	59	6.844043007882	10
2	59	6.844043007882	11
2	73	8.688605491661	12
2	73	8.688605491661	13
2	73	8.688605491661	14
2	91	9.876289929571	15
2	91	9.876289929571	16
2	91	9.876289929571	17
2	112	15.907732806665	18
2	112	15.907732806665	19
2	112	15.907732806665	20
2	127	18.206333971116	21
2	127	18.206333971116	22
2	127	18.206333971116	23
2	141	19.711106516293	24
2	141	19.711106516293	25
2	141	19.711106516293	26
2	164	21.547038736859	27
2	164	21.547038736859	28
2	164	21.547038736859	29
2	177	22.89119847535	30
2	177	22.89119847535	31
2	177	22.89119847535	32
2	187	24.621684931668	33
2	187	24.621684931668	34
2	187	24.621684931668	35
2	205	26.42371780514	36
2	205	26.42371780514	37
2	205	26.42371780514	38
2	228	27.583356326106	39
2	228	27.583356326106	40
2	228	27.583356326106	41
2	253	34.207501188204	42
2	253	34.207501188204	43
2	253	34.207501188204	44
2	265	36.514164616784	45
2	265	36.514164616784	46
2	265	36.514164616784	47
2	283	37.603292338983	48
2	283	37.603292338983	49
2	283	37.603292338983	50
2	320	42.790127512521	51
2	320	42.790127512521	52
2	320	42.790127512521	53
2	339	49.229551533861	54
2	339	49.229551533861	55
2	339	49.229551533861	56
2	353	50.254110439285	57
2	353	50.254110439285	58
2	353	50.254110439285	59
2	375	54.285045324084	60
2	375	54.285045324084	61
2	375	54.285045324084	62
2	394	55.375847986007	63
2	394	55.375847986007	64
2	394	55.375847986007	65
2	411	57.136091931977	66
2	411	57.136091931977	67
2	411	57.136091931977	68
2	435	61.601807782297	69
2	435	61.601807782297	70
2	435	61.601807782297	71
2	458	63.301725069366	72
2	458	63.301725069366	73
2	458	63.301725069366	74
2	474	66.427725938891	75
2	474	66.427725938891	76
2	474	66.427725938891	77
2	499	70.250956272661	78
2	499	70.250956272661	79
2	499	70.250956272661	80
2	518	71.280556631204	81
2	518	71.280556631204	82
2	518	71.280556631204	83
2	535	72.483690566037	84
2	535	72.483690566037	85
2	535	72.483690566037	86
2	557	73.50063382751	87
2	557	73.50063382751	88
2	557	73.50063382751	89
2	579	77.216795870127	90
2	579	77.216795870127	91
2	579	77.216795870127	92
2	593	78.492103061876	93
2	593	78.492103061876	94
2	593	78.492103061876	95
2	611	80.316351946427	96
2	611	80.316351946427	97
2	611	80.316351946427	98
2	630	82.185687712348	99
2	630	82.185687712348	100
2	630	82.185687712348	101
2	643	83.307162381711	102
2	643	83.307162381711	103
2	643	83.307162381711	104
2	665	84.986070627673	105
2	665	84.986070627673	106
2	665	84.986070627673	107
2	687	86.728629629729	108
2	687	86.728629629729	109
2	687	86.728629629729	110
2	697	88.058419995646	111
2	697	88.058419995646	112
2	697	88.058419995646	113
2	716	89.797552318792	114
2	716	89.797552318792	115
2	716	89.797552318792	116
2	733	91.522728794247	117
2	733	91.522728794247	118
2	733	91.522728794247	119
2	755	92.895661341436	120
2	755	92.895661341436	121
2	755	92.895661341436	122
2	783	98.579985660664	123
2	783	98.579985660664	124
2	783	98.579985660664	125
2	798	100.464817656116	126
2	798	100.464817656116	127
2	798	100.464817656116	128
2	815	101.617444465063	129
2	815	101.617444465063	130
2	815	101.617444465063	131
2	837	103.039671963822	132
2	837	103.039671963822	133
2	837	103.039671963822	134
2	857	106.148940950416	135
2	857	106.148940950416	136
2	857	106.148940950416	137
2	875	107.734727355616	138
2	875	107.734727355616	139
2	875	107.734727355616	140
2	889	109.425608923839	141
2	889	109.425608923839	142
2	889	109.425608923839	143
2	907	113.817748954943	144
2	907	113.817748954943	145
2	907	113.817748954943	146
2	932	117.158780278456	147
2	932	117.158780278456	148
2	932	117.158780278456	149
2	949	119.045796135908	150
2	949	119.045796135908	151
2	949	119.045796135908	152
2	963	120.794443609807	153
2	963	120.794443609807	154
2	963	120.794443609807	155
2	986	121.95366583092	156
2	986	121.95366583092	157
2	986	121.95366583092	158
2	1004	123.842379451616	159
2	1004	123.842379451616	160
2	1004	123.842379451616	161
2	1021	125.423820936214	162
2	1021	125.423820936214	163
2	1021	125.423820936214	164
2	1041	128.519791505938	165
2	1041	128.519791505938	166
2	1041	128.519791505938	167
2	1061	131.287348976565	168
2	1061	131.287348976565	169
2	1061	131.287348976565	170
2	1080	132.343524351304	171
2	1080	132.343524351304	172
2	1080	132.343524351304	173
2	1102	133.451830528435	174
2	1102	133.451830528435	175
2	1102	133.451830528435	176
2	1116	134.515846071632	177
2	1116	134.515846071632	178
2	1116	134.515846071632	179
2	1137	135.677189093898	180
2	1137	135.677189093898	181
2	1137	135.677189093898	182
2	1156	137.651488274577	183
2	1156	137.651488274577	184
2	1156	137.651488274577	185
2	1173	139.270272336163	186
2	1173	139.270272336163	187
2	1173	139.270272336163	188
2	1213	147.997985975516	189
2	1213	147.997985975516	190
2	1213	147.997985975516	191
2	1227	149.915158104132	192
2	1227	149.915158104132	193
2	1227	149.915158104132	194
2	1245	151.366636977288	195
2	1245	151.366636977288	196
2	1245	151.366636977288	197
2	1259	153.316664355597	198
2	1259	153.316664355597	199
2	1259	153.316664355597	200
2	1287	156.913965788148	201
2	1287	156.913965788148	202
2	1287	156.913965788148	203
2	1305	157.985201455229	204
2	1305	157.985201455229	205
2	1305	157.985201455229	206
2	1333	160.67149418567	207
2	1333	160.67149418567	208
2	1333	160.67149418567	209
2	1346	164.168681777282	210
2	1346	164.168681777282	211
2	1346	164.168681777282	212
2	1364	166.093303645311	213
2	1364	166.093303645311	214
2	1364	166.093303645311	215
2	1387	168.943048364494	216
2	1387	168.943048364494	217
2	1387	168.943048364494	218
2	1409	173.001861098931	219
2	1409	173.001861098931	220
2	1409	173.001861098931	221
2	1431	174.639858004931	222
2	1431	174.639858004931	223
2	1431	174.639858004931	224
2	1445	175.930482317235	225
2	1445	175.930482317235	226
2	1445	175.930482317235	227
2	1469	178.868029768693	228
2	1469	178.868029768693	229
2	1469	178.868029768693	230
2	1493	181.555024527373	231
2	1493	181.555024527373	232
2	1493	181.555024527373	233
2	1511	182.631886619128	234
2	1511	182.631886619128	235
2	1511	182.631886619128	236
2	1525	184.494022168379	237
2	1525	184.494022168379	238
2	1525	184.494022168379	239
2	1537	186.65963928449	240
2	1537	186.65963928449	241
2	1537	186.65963928449	242
2	1557	190.024685348565	243
2	1557	190.024685348565	244
2	1557	190.024685348565	245
2	1575	191.171323726562	246
2	1575	191.171323726562	247
2	1575	191.171323726562	248
2	1595	193.778184730705	249
2	1595	193.778184730705	250
2	1595	193.778184730705	251
2	1614	195.024705748387	252
2	1614	195.024705748387	253
2	1614	195.024705748387	254
2	1632	196.573638783791	255
2	1632	196.573638783791	256
2	1632	196.573638783791	257
2	1649	197.867037626721	258
2	1649	197.867037626721	259
2	1649	197.867037626721	260
2	1668	198.897797710853	261
2	1668	198.897797710853	262
2	1668	198.897797710853	263
2	1687	202.118223920809	264
2	1687	202.118223920809	265
2	1687	202.118223920809	266
2	1705	203.767745472204	267
2	1705	203.767745472204	268
2	1705	203.767745472204	269
2	1723	204.950543087151	270
2	1723	204.950543087151	271
2	1723	204.950543087151	272
2	1749	209.237097023897	273
2	1749	209.237097023897	274
2	1749	209.237097023897	275
2	1769	212.30023431499	276
2	1769	212.30023431499	277
2	1769	212.30023431499	278
2	1787	213.30298160257	279
2	1787	213.30298160257	280
2	1787	213.30298160257	281
2	1811	215.561775960357	282
2	1811	215.561775960357	283
2	1811	215.561775960357	284
2	1825	216.964969503236	285
2	1825	216.964969503236	286
2	1825	216.964969503236	287
2	1843	218.719457402639	288
2	1843	218.719457402639	289
2	1843	218.719457402639	290
2	1868	221.690177884957	291
2	1868	221.690177884957	292
2	1868	221.690177884957	293
2	1893	227.174841108517	294
2	1893	227.174841108517	295
2	1893	227.174841108517	296
2	1907	228.988044528515	297
2	1907	228.988044528515	298
2	1907	228.988044528515	299
2	1929	230.955969675749	300
2	1929	230.955969675749	301
2	1929	230.955969675749	302
2	1947	232.269299889051	303
2	1947	232.269299889051	304
2	1947	232.269299889051	305
2	1958	233.586668529271	306
2	1958	233.586668529271	307
2	1958	233.586668529271	308
2	1979	234.980758623652	309
2	1979	234.980758623652	310
2	1979	234.980758623652	311
2	1994	236.330766843778	312
2	1994	236.330766843778	313
2	1994	236.330766843778	314
2	2011	237.861744100833	315
2	2011	237.861744100833	316
2	2011	237.861744100833	317
2	2030	239.284779025842	318
2	2030	239.284779025842	319
2	2030	239.284779025842	320
3	20	3.521818245138	0
3	20	3.521818245138	1
3	20	3.521818245138	2
3	37	4.898533415481	3
3	37	4.898533415481	4
3	37	4.898533415481	5
3	55	6.822940367573	6
3	55	6.822940367573	7
3	55	6.822940367573	8
3	77	8.698790067441	9
3	77	8.698790067441	10
3	77	8.698790067441	11
3	107	15.889196886235	12
3	107	15.889196886235	13
3	107	15.889196886235	14
3	128	18.211168942579	15
3	128	18.211168942579	16
3	128	18.211168942579	17
3	145	19.732999571691	18
3	145	19.732999571691	19
3	145	19.732999571691	20
3	159	21.523138024525	21
3	159	21.523138024525	22
3	159	21.523138024525	23
3	188	24.625076870396	24
3	188	24.625076870396	25
3	188	24.625076870396	26
3	213	26.457635809978	27
3	213	26.457635809978	28
3	213	26.457635809978	29
3	223	27.557860875344	30
3	223	27.557860875344	31
3	223	27.557860875344	32
3	266	36.522209630416	33
3	266	36.522209630416	34
3	266	36.522209630416	35
3	284	37.604141555817	36
3	284	37.604141555817	37
3	284	37.604141555817	38
3	315	42.76376268179	39
3	315	42.76376268179	40
3	315	42.76376268179	41
3	340	49.234146647737	42
3	340	49.234146647737	43
3	340	49.234146647737	44
3	354	50.262096093435	45
3	354	50.262096093435	46
3	354	50.262096093435	47
3	376	54.28780940601	48
3	376	54.28780940601	49
3	376	54.28780940601	50
3	393	55.373318024906	51
3	393	55.373318024906	52
3	393	55.373318024906	53
3	419	57.178627018788	54
3	419	57.178627018788	55
3	419	57.178627018788	56
3	440	61.61381585726	57
3	440	61.61381585726	58
3	440	61.61381585726	59
3	453	63.289342375247	60
3	453	63.289342375247	61
3	453	63.289342375247	62
3	473	66.418881234563	63
3	473	66.418881234563	64
3	473	66.418881234563	65
3	507	70.276036270124	66
3	507	70.276036270124	67
3	507	70.276036270124	68
3	517	71.275080379373	69
3	517	71.275080379373	70
3	517	71.275080379373	71
3	536	72.484870507422	72
3	536	72.484870507422	73
3	536	72.484870507422	74
3	553	73.488150927897	75
3	553	73.488150927897	76
3	553	73.488150927897	77
3	575	77.206343047764	78
3	575	77.206343047764	79
3	575	77.206343047764	80
3	594	78.496020242197	81
3	594	78.496020242197	82
3	594	78.496020242197	83
3	607	80.302118118932	84
3	607	80.302118118932	85
3	607	80.302118118932	86
3	625	82.168764553676	87
3	625	82.168764553676	88
3	625	82.168764553676	89
3	647	83.318237869224	90
3	647	83.318237869224	91
3	647	83.318237869224	92
3	661	84.973707607948	93
3	661	84.973707607948	94
3	661	84.973707607948	95
3	679	86.659461636924	96
3	679	86.659461636924	97
3	679	86.659461636924	98
3	701	88.074143326911	99
3	701	88.074143326911	100
3	701	88.074143326911	101
3	715	89.788193826301	102
3	715	89.788193826301	103
3	715	89.788193826301	104
3	738	91.540203263729	105
3	738	91.540203263729	106
3	738	91.540203263729	107
3	751	92.880396836296	108
3	751	92.880396836296	109
3	751	92.880396836296	110
3	787	98.592481795526	111
3	787	98.592481795526	112
3	787	98.592481795526	113
3	797	100.464188476742	114
3	797	100.464188476742	115
3	797	100.464188476742	116
3	816	101.61970169303	117
3	816	101.61970169303	118
3	816	101.61970169303	119
3	833	103.019823693921	120
3	833	103.019823693921	121
3	833	103.019823693921	122
3	853	106.135163398059	123
3	853	106.135163398059	124
3	853	106.135163398059	125
3	871	107.716369764871	126
3	871	107.716369764871	127
3	871	107.716369764871	128
3	885	109.40063824545	129
3	885	109.40063824545	130
3	885	109.40063824545	131
3	911	113.85133840961	132
3	911	113.85133840961	133
3	911	113.85133840961	134
3	927	117.144752062252	135
3	927	117.144752062252	136
3	927	117.144752062252	137
3	945	119.017313704265	138
3	945	119.017313704265	139
3	945	119.017313704265	140
3	967	120.805892180158	141
3	967	120.805892180158	142
3	967	120.805892180158	143
3	981	121.93613094155	144
3	981	121.93613094155	145
3	981	121.93613094155	146
3	999	123.828605183486	147
3	999	123.828605183486	148
3	999	123.828605183486	149
3	1017	125.409528670391	150
3	1017	125.409528670391	151
3	1017	125.409528670391	152
3	1049	128.557863079704	153
3	1049	128.557863079704	154
3	1049	128.557863079704	155
3	1069	131.32253974555	156
3	1069	131.32253974555	157
3	1069	131.32253974555	158
3	1079	132.341104383265	159
3	1079	132.341104383265	160
3	1079	132.341104383265	161
3	1097	133.434409335979	162
3	1097	133.434409335979	163
3	1097	133.434409335979	164
3	1115	134.512346738173	165
3	1115	134.512346738173	166
3	1115	134.512346738173	167
3	1133	135.658527567259	168
3	1133	135.658527567259	169
3	1133	135.658527567259	170
3	1151	137.630349092808	171
3	1151	137.630349092808	172
3	1151	137.630349092808	173
3	1169	139.255909975995	174
3	1169	139.255909975995	175
3	1169	139.255909975995	176
3	1205	147.963056559818	177
3	1205	147.963056559818	178
3	1205	147.963056559818	179
3	1223	149.904454215941	180
3	1223	149.904454215941	181
3	1223	149.904454215941	182
3	1241	151.355155881699	183
3	1241	151.355155881699	184
3	1241	151.355155881699	185
3	1260	153.322253284022	186
3	1260	153.322253284022	187
3	1260	153.322253284022	188
3	1277	155.112726629646	189
3	1277	155.112726629646	190
3	1277	155.112726629646	191
3	1288	156.914716380001	192
3	1288	156.914716380001	193
3	1288	156.914716380001	194
3	1310	157.999564999529	195
3	1310	157.999564999529	196
3	1310	157.999564999529	197
3	1325	160.647256464175	198
3	1325	160.647256464175	199
3	1325	160.647256464175	200
3	1345	164.159624764284	201
3	1345	164.159624764284	202
3	1345	164.159624764284	203
3	1363	166.088300256731	204
3	1363	166.088300256731	205
3	1363	166.088300256731	206
3	1388	168.944496677611	207
3	1388	168.944496677611	208
3	1388	168.944496677611	209
3	1417	173.039998759713	210
3	1417	173.039998759713	211
3	1417	173.039998759713	212
3	1427	174.628730844002	213
3	1427	174.628730844002	214
3	1427	174.628730844002	215
3	1450	175.947508245906	216
3	1450	175.947508245906	217
3	1450	175.947508245906	218
3	1470	178.872322765264	219
3	1470	178.872322765264	220
3	1470	178.872322765264	221
3	1489	181.539425265302	222
3	1489	181.539425265302	223
3	1489	181.539425265302	224
3	1503	182.60703929388	225
3	1503	182.60703929388	226
3	1503	182.60703929388	227
3	1521	184.462602938274	228
3	1521	184.462602938274	229
3	1521	184.462602938274	230
3	1545	186.703815464891	231
3	1545	186.703815464891	232
3	1545	186.703815464891	233
3	1558	190.027175551027	234
3	1558	190.027175551027	235
3	1558	190.027175551027	236
3	1583	191.197067121721	237
3	1583	191.197067121721	238
3	1583	191.197067121721	239
3	1603	193.818808675278	240
3	1603	193.818808675278	241
3	1603	193.818808675278	242
3	1613	195.018590623309	243
3	1613	195.018590623309	244
3	1613	195.018590623309	245
3	1631	196.571374520302	246
3	1631	196.571374520302	247
3	1631	196.571374520302	248
3	1650	197.867914467515	249
3	1650	197.867914467515	250
3	1650	197.867914467515	251
3	1667	198.892197325037	252
3	1667	198.892197325037	253
3	1667	198.892197325037	254
3	1688	202.120725743878	255
3	1688	202.120725743878	256
3	1688	202.120725743878	257
3	1706	203.776449858569	258
3	1706	203.776449858569	259
3	1706	203.776449858569	260
3	1724	204.951279910601	261
3	1724	204.951279910601	262
3	1724	204.951279910601	263
3	1754	209.2504464922	264
3	1754	209.2504464922	265
3	1754	209.2504464922	266
3	1774	212.317692823231	267
3	1774	212.317692823231	268
3	1774	212.317692823231	269
3	1791	213.317513115983	270
3	1791	213.317513115983	271
3	1791	213.317513115983	272
3	1807	215.53303459402	273
3	1807	215.53303459402	274
3	1807	215.53303459402	275
3	1821	216.950960717692	276
3	1821	216.950960717692	277
3	1821	216.950960717692	278
3	1839	218.707923311809	279
3	1839	218.707923311809	280
3	1839	218.707923311809	281
3	1857	220.070591803669	282
3	1857	220.070591803669	283
3	1857	220.070591803669	284
3	1867	221.686617144452	285
3	1867	221.686617144452	286
3	1867	221.686617144452	287
3	1889	227.162396268508	288
3	1889	227.162396268508	289
3	1889	227.162396268508	290
3	1908	228.989533251952	291
3	1908	228.989533251952	292
3	1908	228.989533251952	293
3	1925	230.94295490586	294
3	1925	230.94295490586	295
3	1925	230.94295490586	296
3	1943	232.258182366465	297
3	1943	232.258182366465	298
3	1943	232.258182366465	299
3	1957	233.578024764173	300
3	1957	233.578024764173	301
3	1957	233.578024764173	302
3	1975	234.960824580531	303
3	1975	234.960824580531	304
3	1975	234.960824580531	305
3	1993	236.323451965109	306
3	1993	236.323451965109	307
3	1993	236.323451965109	308
3	2012	237.86368740894	309
3	2012	237.86368740894	310
3	2012	237.86368740894	311
3	2029	239.28373792038	312
3	2029	239.28373792038	313
3	2029	239.28373792038	314
4	24	3.531799285287	0
4	24	3.531799285287	1
4	24	3.531799285287	2
4	45	4.921120187593	3
4	45	4.921120187593	4
4	45	4.921120187593	5
4	63	6.86517988416	6
4	63	6.86517988416	7
4	63	6.86517988416	8
4	81	8.753763174125	9
4	81	8.753763174125	10
4	81	8.753763174125	11
4	111	15.899745277172	12
4	111	15.899745277172	13
4	111	15.899745277172	14
4	146	19.737577461896	15
4	146	19.737577461896	16
4	146	19.737577461896	17
4	163	21.542910971758	18
4	163	21.542910971758	19
4	163	21.542910971758	20
4	195	24.655054576819	21
4	195	24.655054576819	22
4	195	24.655054576819	23
4	209	26.443482462795	24
4	209	26.443482462795	25
4	209	26.443482462795	26
4	227	27.57410289992	27
4	227	27.57410289992	28
4	227	27.57410289992	29
4	273	36.548665733128	30
4	273	36.548665733128	31
4	273	36.548665733128	32
4	288	37.613748087058	33
4	288	37.613748087058	34
4	288	37.613748087058	35
4	319	42.787270238172	36
4	319	42.787270238172	37
4	319	42.787270238172	38
4	358	50.268732130501	39
4	358	50.268732130501	40
4	358	50.268732130501	41
4	383	54.298101025555	42
4	383	54.298101025555	43
4	383	54.298101025555	44
4	401	55.397437650401	45
4	401	55.397437650401	46
4	401	55.397437650401	47
4	415	57.152106761215	48
4	415	57.152106761215	49
4	415	57.152106761215	50
4	439	61.613746011872	51
4	439	61.613746011872	52
4	439	61.613746011872	53
4	457	63.299584114671	54
4	457	63.299584114671	55
4	457	63.299584114671	56
4	478	66.43174073962	57
4	478	66.43174073962	58
4	478	66.43174073962	59
4	503	70.265681626043	60
4	503	70.265681626043	61
4	503	70.265681626043	62
4	522	71.285857010291	63
4	522	71.285857010291	64
4	522	71.285857010291	65
4	543	72.498688734735	66
4	543	72.498688734735	67
4	543	72.498688734735	68
4	561	73.537947865011	69
4	561	73.537947865011	70
4	561	73.537947865011	71
4	583	77.2269909481	72
4	583	77.2269909481	73
4	583	77.2269909481	74
4	612	80.318408206741	75
4	612	80.318408206741	76
4	612	80.318408206741	77
4	629	82.180908408001	78
4	629	82.180908408001	79
4	629	82.180908408001	80
4	648	83.324416131563	81
4	648	83.324416131563	82
4	648	83.324416131563	83
4	669	85.008634859653	84
4	669	85.008634859653	85
4	669	85.008634859653	86
4	683	86.699380232857	87
4	683	86.699380232857	88
4	683	86.699380232857	89
4	702	88.081577556876	90
4	702	88.081577556876	91
4	702	88.081577556876	92
4	720	89.804101528513	93
4	720	89.804101528513	94
4	720	89.804101528513	95
4	737	91.534184000046	96
4	737	91.534184000046	97
4	737	91.534184000046	98
4	756	92.896937311171	99
4	756	92.896937311171	100
4	756	92.896937311171	101
4	805	100.487587584525	102
4	805	100.487587584525	103
4	805	100.487587584525	104
4	820	101.628598784165	105
4	820	101.628598784165	106
4	820	101.628598784165	107
4	838	103.047196967317	108
4	838	103.047196967317	109
4	838	103.047196967317	110
4	858	106.15005951099	111
4	858	106.15005951099	112
4	858	106.15005951099	113
4	893	109.442754660954	114
4	893	109.442754660954	115
4	893	109.442754660954	116
4	915	113.866461238619	117
4	915	113.866461238619	118
4	915	113.866461238619	119
4	931	117.158059110308	120
4	931	117.158059110308	121
4	931	117.158059110308	122
4	953	119.062418854674	123
4	953	119.062418854674	124
4	953	119.062418854674	125
4	971	120.825789105412	126
4	971	120.825789105412	127
4	971	120.825789105412	128
4	985	121.947897572305	129
4	985	121.947897572305	130
4	985	121.947897572305	131
4	1003	123.841183953508	132
4	1003	123.841183953508	133
4	1003	123.841183953508	134
4	1022	125.428066973937	135
4	1022	125.428066973937	136
4	1022	125.428066973937	137
4	1045	128.533418591687	138
4	1045	128.533418591687	139
4	1045	128.533418591687	140
4	1065	131.311936546491	141
4	1065	131.311936546491	142
4	1065	131.311936546491	143
4	1087	132.359905953391	144
4	1087	132.359905953391	145
4	1087	132.359905953391	146
4	1101	133.44854493417	147
4	1101	133.44854493417	148
4	1101	133.44854493417	149
4	1123	134.55276643878	150
4	1123	134.55276643878	151
4	1123	134.55276643878	152
4	1138	135.685014503252	153
4	1138	135.685014503252	154
4	1138	135.685014503252	155
4	1155	137.648570950692	156
4	1155	137.648570950692	157
4	1155	137.648570950692	158
4	1177	139.282396879552	159
4	1177	139.282396879552	160
4	1177	139.282396879552	161
4	1209	147.975383773281	162
4	1209	147.975383773281	163
4	1209	147.975383773281	164
4	1231	149.939978865675	165
4	1231	149.939978865675	166
4	1231	149.939978865675	167
4	1249	151.399991274538	168
4	1249	151.399991274538	169
4	1249	151.399991274538	170
4	1267	153.355724815164	171
4	1267	153.355724815164	172
4	1267	153.355724815164	173
4	1295	156.925508855681	174
4	1295	156.925508855681	175
4	1295	156.925508855681	176
4	1309	157.997151404413	177
4	1309	157.997151404413	178
4	1309	157.997151404413	179
4	1329	160.659697802407	180
4	1329	160.659697802407	181
4	1329	160.659697802407	182
4	1353	164.183268976511	183
4	1353	164.183268976511	184
4	1353	164.183268976511	185
4	1371	166.11260661546	186
4	1371	166.11260661546	187
4	1371	166.11260661546	188
4	1395	168.956645112194	189
4	1395	168.956645112194	190
4	1395	168.956645112194	191
4	1413	173.020871278017	192
4	1413	173.020871278017	193
4	1413	173.020871278017	194
4	1432	174.64471172229	195
4	1432	174.64471172229	196
4	1432	174.64471172229	197
4	1449	175.947374976957	198
4	1449	175.947374976957	199
4	1449	175.947374976957	200
4	1477	178.887820388946	201
4	1477	178.887820388946	202
4	1477	178.887820388946	203
4	1507	182.62101228917	204
4	1507	182.62101228917	205
4	1507	182.62101228917	206
4	1541	186.69316184723	207
4	1541	186.69316184723	208
4	1541	186.69316184723	209
4	1565	190.071663479801	210
4	1565	190.071663479801	211
4	1565	190.071663479801	212
4	1579	191.18699660194	213
4	1579	191.18699660194	214
4	1579	191.18699660194	215
4	1599	193.792171330646	216
4	1599	193.792171330646	217
4	1599	193.792171330646	218
4	1618	195.033534789561	219
4	1618	195.033534789561	220
4	1618	195.033534789561	221
4	1639	196.589184214415	222
4	1639	196.589184214415	223
4	1639	196.589184214415	224
4	1654	197.877631462998	225
4	1654	197.877631462998	226
4	1654	197.877631462998	227
4	1675	198.917129528873	228
4	1675	198.917129528873	229
4	1675	198.917129528873	230
4	1695	202.137563770997	231
4	1695	202.137563770997	232
4	1695	202.137563770997	233
4	1713	203.81607267395	234
4	1713	203.81607267395	235
4	1713	203.81607267395	236
4	1731	204.975187796707	237
4	1731	204.975187796707	238
4	1731	204.975187796707	239
4	1753	209.247726812539	240
4	1753	209.247726812539	241
4	1753	209.247726812539	242
4	1773	212.310523360915	243
4	1773	212.310523360915	244
4	1773	212.310523360915	245
4	1795	213.327871969229	246
4	1795	213.327871969229	247
4	1795	213.327871969229	248
4	1829	216.985329524563	249
4	1829	216.985329524563	250
4	1829	216.985329524563	251
4	1844	218.722534145946	252
4	1844	218.722534145946	253
4	1844	218.722534145946	254
4	1875	221.701511429775	255
4	1875	221.701511429775	256
4	1875	221.701511429775	257
4	1894	227.175825369655	258
4	1894	227.175825369655	259
4	1894	227.175825369655	260
4	1915	229.008594002977	261
4	1915	229.008594002977	262
4	1915	229.008594002977	263
4	1933	230.969535080227	264
4	1933	230.969535080227	265
4	1933	230.969535080227	266
4	1965	233.597722561286	267
4	1965	233.597722561286	268
4	1965	233.597722561286	269
4	1980	234.983699277442	270
4	1980	234.983699277442	271
4	1980	234.983699277442	272
4	2001	236.367722374422	273
4	2001	236.367722374422	274
4	2001	236.367722374422	275
4	2016	237.872122289537	276
4	2016	237.872122289537	277
4	2016	237.872122289537	278
5	30	3.541799285287	0
5	48	4.931120187593	1
5	66	6.87517988416	2
5	115	15.909745277172	3
5	152	19.747577461896	4
5	167	21.552910971758	5
5	198	24.665054576819	6
5	231	27.58410289992	7
5	276	36.558665733128	8
5	294	37.623748087058	9
5	364	50.278732130501	10
5	386	54.308101025555	11
5	404	55.407437650401	12
5	418	57.162106761215	13
5	443	61.623746011872	14
5	461	63.309584114671	15
5	484	66.44174073962	16
5	528	71.295857010291	17
5	546	72.508688734735	18
5	564	73.547947865011	19
5	586	77.2369909481	20
5	618	80.328408206741	21
5	654	83.334416131563	22
5	672	85.018634859653	23
5	686	86.709380232857	24
5	708	88.091577556876	25
5	726	89.814101528513	26
5	741	91.544184000046	27
5	762	92.906937311171	28
5	808	100.497587584525	29
5	826	101.638598784165	30
5	864	106.16005951099	31
5	935	117.168059110308	32
5	1007	123.851183953508	33
5	1028	125.438066973937	34
5	1048	128.543418591687	35
5	1144	135.695014503252	36
5	1180	139.292396879552	37
5	1212	147.985383773281	38
5	1252	151.409991274538	39
5	1313	158.007151404413	40
5	1332	160.669697802407	41
5	1356	164.193268976511	42
5	1374	166.12260661546	43
5	1416	173.030871278017	44
5	1453	175.957374976957	45
5	1480	178.897820388946	46
5	1510	182.63101228917	47
5	1568	190.081663479801	48
5	1582	191.19699660194	49
5	1602	193.802171330646	50
5	1624	195.043534789561	51
5	1660	197.887631462998	52
5	1678	198.927129528873	53
5	1734	204.985187796707	54
5	1798	213.337871969229	55
5	1832	216.995329524563	56
5	1850	218.732534145946	57
5	1878	221.711511429775	58
5	1900	227.185825369655	59
5	1918	229.018594002977	60
5	1936	230.979535080227	61
5	1968	233.607722561286	62
5	1986	234.993699277442	63
5	2004	236.377722374422	64
5	2022	237.882122289537	65

