version 2
run General-3-20230921-21:33:47-5605
attr configname General
attr datetime 20230921-21:33:47
attr experiment General
attr inifile omnetpp.ini
attr iterationvars ""
attr iterationvarsf ""
attr measurement ""
attr network Network1
attr processid 5605
attr repetition 3
attr replication #3
attr resultdir results
attr runnumber 3
attr seedset 3
param Network1.node[*].transmissionTime "uniform(1s, 2s)"
param Network1.node[*].delayTime "uniform(0.01s, 0.2s)"
param Network1.node[*].processingTime exponential(0.01s)
param Network1.node[*].lossProbability 0.3

vector 0 Network1.node[0] txVector ETV
vector 1 Network1.node[1] txVector ETV
vector 2 Network1.node[3] txVector ETV
vector 3 Network1.node[2] txVector ETV
vector 4 Network1.node[4] txVector ETV
vector 5 Network1.node[5] rxVector ETV
0	1	0.114651601831	0
0	15	1.185376482154	1
0	17	2.433264783886	2
0	27	3.526816279464	3
0	41	4.880721352365	4
0	47	6.187081979424	5
0	65	7.641689744381	6
0	83	9.450618943967	7
0	85	11.198776380694	8
0	87	12.808400044753	9
0	105	14.011754573625	10
0	107	15.852795733441	11
0	125	17.545429480564	12
0	143	19.085549081978	13
0	157	20.111575348605	14
0	159	22.101876537152	15
0	161	23.794527153554	16
0	179	25.546667183586	17
0	197	27.117951928475	18
0	199	28.663334545284	19
0	201	30.491356662312	20
0	219	31.725048671547	21
0	237	32.993856000319	22
0	239	34.261803755142	23
0	241	35.519010133181	24
0	259	36.79565167993	25
0	261	37.925310063946	26
0	279	39.785363526854	27
0	297	41.482113514633	28
0	299	42.888012498689	29
0	317	44.426476190404	30
0	319	45.586123348751	31
0	337	47.405665432407	32
0	355	48.768741712045	33
0	373	50.149670583267	34
0	375	51.171766397614	35
0	393	52.394142717194	36
0	395	54.294913522272	37
0	409	55.655997297332	38
0	427	57.648920854392	39
0	429	59.240446859343	40
0	431	60.365068609431	41
0	433	61.395997805824	42
0	439	62.628096195241	43
0	457	64.570010558772	44
0	475	66.313839969994	45
0	477	67.845303100371	46
0	495	69.023841934349	47
0	497	70.094211693691	48
0	515	71.933115101257	49
0	517	73.33939228633	50
0	535	75.196010444849	51
0	553	76.223042319599	52
0	567	78.012086575921	53
0	585	79.908495562454	54
0	603	81.80555917027	55
0	621	83.788363940851	56
0	623	85.238202866004	57
0	629	86.650633932394	58
0	631	88.373076134897	59
0	633	90.0011016201	60
0	635	91.409691464226	61
0	653	92.57429101232	62
0	655	94.256057754229	63
0	661	95.747119065444	64
0	679	96.756975889741	65
0	697	98.095621592202	66
0	699	100.010101329372	67
0	701	101.901525003207	68
0	703	103.757073204802	69
0	705	105.085309557687	70
0	723	106.171553175268	71
0	725	107.254345200793	72
0	743	108.475018854323	73
0	745	109.512155808346	74
0	763	111.510502887029	75
0	765	112.798477547081	76
0	783	113.826115154732	77
0	797	114.947712460138	78
0	815	115.9918276808	79
0	829	117.705098931981	80
0	847	118.881702371245	81
0	849	120.805569093279	82
0	867	121.845363246347	83
0	885	123.804928546143	84
0	903	124.975539319753	85
0	913	126.272134739743	86
0	931	127.903624696727	87
0	949	129.841863121209	88
0	967	131.802727339627	89
0	985	132.905204106658	90
0	1003	134.750017579948	91
0	1017	136.291806742154	92
0	1035	137.395062307665	93
0	1037	139.104655900808	94
0	1039	140.774678235479	95
0	1041	142.212713071449	96
0	1043	143.709780600459	97
0	1061	145.649238485216	98
0	1079	146.875959144977	99
0	1097	148.282681835189	100
0	1099	150.201015069454	101
0	1117	151.603880593625	102
0	1127	153.274505685388	103
0	1145	154.479847510883	104
0	1163	156.454286372361	105
0	1165	158.367184209709	106
0	1171	159.91018187937	107
0	1173	161.367909818493	108
0	1187	163.313370626956	109
0	1205	164.840030838806	110
0	1207	166.709496503999	111
0	1225	168.670037740446	112
0	1227	170.505126084737	113
0	1245	172.202255100548	114
0	1263	173.347209074139	115
0	1265	174.969111307361	116
0	1267	176.575045068119	117
0	1285	177.728156012086	118
0	1295	178.956138762714	119
0	1301	180.063219374347	120
0	1319	181.698685160907	121
0	1337	183.651069187395	122
0	1355	184.692614123294	123
0	1373	186.230492866667	124
0	1391	187.60950895592	125
0	1393	188.946765607292	126
0	1411	190.876628851587	127
0	1417	191.96020895203	128
0	1419	193.449444511741	129
0	1437	194.991644700592	130
0	1439	196.290649795508	131
0	1457	197.756817714613	132
0	1463	199.724876378965	133
0	1465	200.887883071158	134
0	1483	202.784161489991	135
0	1497	204.269548908643	136
0	1515	205.778725014602	137
0	1533	207.125327137833	138
0	1551	208.880919326398	139
0	1557	209.994946358794	140
0	1575	211.944884000182	141
0	1589	213.464878126582	142
0	1607	215.275096992798	143
0	1625	216.666748273721	144
0	1627	218.17031484919	145
0	1645	220.067177383065	146
0	1663	221.528133062016	147
0	1681	223.427389657194	148
0	1695	225.07042127645	149
0	1713	226.261407668073	150
0	1715	228.000858405441	151
0	1733	229.410412750276	152
0	1751	230.908690699678	153
0	1769	232.364208340248	154
0	1787	233.968578271869	155
0	1805	235.783189900288	156
0	1819	236.995045469444	157
0	1821	238.017384966671	158
0	1839	239.847425468102	159
1	3	0.14297423212	0
1	3	0.14297423212	1
1	3	0.14297423212	2
1	19	2.455133438848	3
1	19	2.455133438848	4
1	19	2.455133438848	5
1	29	3.543601543752	6
1	29	3.543601543752	7
1	29	3.543601543752	8
1	43	4.89955523181	9
1	43	4.89955523181	10
1	43	4.89955523181	11
1	49	6.211256331683	12
1	49	6.211256331683	13
1	49	6.211256331683	14
1	67	7.656781197346	15
1	67	7.656781197346	16
1	67	7.656781197346	17
1	89	12.829002546476	18
1	89	12.829002546476	19
1	89	12.829002546476	20
1	109	15.868699842425	21
1	109	15.868699842425	22
1	109	15.868699842425	23
1	127	17.572923843685	24
1	127	17.572923843685	25
1	127	17.572923843685	26
1	145	19.102592660999	27
1	145	19.102592660999	28
1	145	19.102592660999	29
1	163	23.805762586135	30
1	163	23.805762586135	31
1	163	23.805762586135	32
1	181	25.57796281167	33
1	181	25.57796281167	34
1	181	25.57796281167	35
1	203	30.503624133277	36
1	203	30.503624133277	37
1	203	30.503624133277	38
1	221	31.756843334935	39
1	221	31.756843334935	40
1	221	31.756843334935	41
1	243	35.531910201047	42
1	243	35.531910201047	43
1	243	35.531910201047	44
1	263	37.937774158884	45
1	263	37.937774158884	46
1	263	37.937774158884	47
1	281	39.809162981223	48
1	281	39.809162981223	49
1	281	39.809162981223	50
1	301	42.908498534749	51
1	301	42.908498534749	52
1	301	42.908498534749	53
1	321	45.599725851909	54
1	321	45.599725851909	55
1	321	45.599725851909	56
1	339	47.431762678299	57
1	339	47.431762678299	58
1	339	47.431762678299	59
1	357	48.783982796528	60
1	357	48.783982796528	61
1	357	48.783982796528	62
1	377	51.186178548865	63
1	377	51.186178548865	64
1	377	51.186178548865	65
1	397	54.326460749581	66
1	397	54.326460749581	67
1	397	54.326460749581	68
1	411	55.671680684655	69
1	411	55.671680684655	70
1	411	55.671680684655	71
1	435	61.406126181235	72
1	435	61.406126181235	73
1	435	61.406126181235	74
1	441	62.641336446314	75
1	441	62.641336446314	76
1	441	62.641336446314	77
1	459	64.584559449839	78
1	459	64.584559449839	79
1	459	64.584559449839	80
1	479	67.869962265239	81
1	479	67.869962265239	82
1	479	67.869962265239	83
1	499	70.115932436116	84
1	499	70.115932436116	85
1	499	70.115932436116	86
1	519	73.365304633122	87
1	519	73.365304633122	88
1	519	73.365304633122	89
1	537	75.206554742934	90
1	537	75.206554742934	91
1	537	75.206554742934	92
1	555	76.233969810637	93
1	555	76.233969810637	94
1	555	76.233969810637	95
1	569	78.03567739862	96
1	569	78.03567739862	97
1	569	78.03567739862	98
1	587	79.926443553091	99
1	587	79.926443553091	100
1	587	79.926443553091	101
1	605	81.825154172871	102
1	605	81.825154172871	103
1	605	81.825154172871	104
1	625	85.282233922623	105
1	625	85.282233922623	106
1	625	85.282233922623	107
1	637	91.424214289073	108
1	637	91.424214289073	109
1	637	91.424214289073	110
1	657	94.279913518301	111
1	657	94.279913518301	112
1	657	94.279913518301	113
1	663	95.757986330247	114
1	663	95.757986330247	115
1	663	95.757986330247	116
1	681	96.774460456999	117
1	681	96.774460456999	118
1	681	96.774460456999	119
1	707	105.099505389682	120
1	707	105.099505389682	121
1	707	105.099505389682	122
1	727	107.283390876915	123
1	727	107.283390876915	124
1	727	107.283390876915	125
1	747	109.532252413562	126
1	747	109.532252413562	127
1	747	109.532252413562	128
1	767	112.809564373046	129
1	767	112.809564373046	130
1	767	112.809564373046	131
1	785	113.848564992912	132
1	785	113.848564992912	133
1	785	113.848564992912	134
1	799	114.964895542801	135
1	799	114.964895542801	136
1	799	114.964895542801	137
1	817	116.016121448919	138
1	817	116.016121448919	139
1	817	116.016121448919	140
1	831	117.724177739069	141
1	831	117.724177739069	142
1	831	117.724177739069	143
1	851	120.837526179711	144
1	851	120.837526179711	145
1	851	120.837526179711	146
1	869	121.863491568527	147
1	869	121.863491568527	148
1	869	121.863491568527	149
1	887	123.825752957619	150
1	887	123.825752957619	151
1	887	123.825752957619	152
1	905	124.995638674012	153
1	905	124.995638674012	154
1	905	124.995638674012	155
1	915	126.29357999894	156
1	915	126.29357999894	157
1	915	126.29357999894	158
1	933	127.917157097176	159
1	933	127.917157097176	160
1	933	127.917157097176	161
1	951	129.86840287477	162
1	951	129.86840287477	163
1	951	129.86840287477	164
1	969	131.825325059149	165
1	969	131.825325059149	166
1	969	131.825325059149	167
1	987	132.921986641808	168
1	987	132.921986641808	169
1	987	132.921986641808	170
1	1005	134.782045422765	171
1	1005	134.782045422765	172
1	1005	134.782045422765	173
1	1019	136.307373668183	174
1	1019	136.307373668183	175
1	1019	136.307373668183	176
1	1045	143.758474549061	177
1	1045	143.758474549061	178
1	1045	143.758474549061	179
1	1063	145.696529468114	180
1	1063	145.696529468114	181
1	1063	145.696529468114	182
1	1081	146.887771379107	183
1	1081	146.887771379107	184
1	1081	146.887771379107	185
1	1101	150.22028225563	186
1	1101	150.22028225563	187
1	1101	150.22028225563	188
1	1119	151.633109923325	189
1	1119	151.633109923325	190
1	1119	151.633109923325	191
1	1129	153.284548322519	192
1	1129	153.284548322519	193
1	1129	153.284548322519	194
1	1147	154.491324150232	195
1	1147	154.491324150232	196
1	1147	154.491324150232	197
1	1167	158.382571627371	198
1	1167	158.382571627371	199
1	1167	158.382571627371	200
1	1175	161.385301743531	201
1	1175	161.385301743531	202
1	1175	161.385301743531	203
1	1189	163.32935572816	204
1	1189	163.32935572816	205
1	1189	163.32935572816	206
1	1209	166.728888370932	207
1	1209	166.728888370932	208
1	1209	166.728888370932	209
1	1229	170.526403822893	210
1	1229	170.526403822893	211
1	1229	170.526403822893	212
1	1247	172.214867272935	213
1	1247	172.214867272935	214
1	1247	172.214867272935	215
1	1269	176.589922043242	216
1	1269	176.589922043242	217
1	1269	176.589922043242	218
1	1287	177.776665443781	219
1	1287	177.776665443781	220
1	1287	177.776665443781	221
1	1297	178.975284145574	222
1	1297	178.975284145574	223
1	1297	178.975284145574	224
1	1303	180.082360109427	225
1	1303	180.082360109427	226
1	1303	180.082360109427	227
1	1321	181.709910212321	228
1	1321	181.709910212321	229
1	1321	181.709910212321	230
1	1339	183.677008998155	231
1	1339	183.677008998155	232
1	1339	183.677008998155	233
1	1357	184.735034481522	234
1	1357	184.735034481522	235
1	1357	184.735034481522	236
1	1375	186.246462818416	237
1	1375	186.246462818416	238
1	1375	186.246462818416	239
1	1395	188.975369292432	240
1	1395	188.975369292432	241
1	1395	188.975369292432	242
1	1413	190.892129219579	243
1	1413	190.892129219579	244
1	1413	190.892129219579	245
1	1421	193.46395954726	246
1	1421	193.46395954726	247
1	1421	193.46395954726	248
1	1441	196.303674421372	249
1	1441	196.303674421372	250
1	1441	196.303674421372	251
1	1459	197.7683482748	252
1	1459	197.7683482748	253
1	1459	197.7683482748	254
1	1467	200.900920809906	255
1	1467	200.900920809906	256
1	1467	200.900920809906	257
1	1485	202.79706741525	258
1	1485	202.79706741525	259
1	1485	202.79706741525	260
1	1499	204.288839592897	261
1	1499	204.288839592897	262
1	1499	204.288839592897	263
1	1517	205.840479196332	264
1	1517	205.840479196332	265
1	1517	205.840479196332	266
1	1535	207.141738088254	267
1	1535	207.141738088254	268
1	1535	207.141738088254	269
1	1553	208.891507782	270
1	1553	208.891507782	271
1	1553	208.891507782	272
1	1559	210.018650563443	273
1	1559	210.018650563443	274
1	1559	210.018650563443	275
1	1577	211.971252081676	276
1	1577	211.971252081676	277
1	1577	211.971252081676	278
1	1591	213.489021151811	279
1	1591	213.489021151811	280
1	1591	213.489021151811	281
1	1609	215.28740004312	282
1	1609	215.28740004312	283
1	1609	215.28740004312	284
1	1629	218.185312335885	285
1	1629	218.185312335885	286
1	1629	218.185312335885	287
1	1647	220.104200636299	288
1	1647	220.104200636299	289
1	1647	220.104200636299	290
1	1665	221.540486727774	291
1	1665	221.540486727774	292
1	1665	221.540486727774	293
1	1683	223.446822784784	294
1	1683	223.446822784784	295
1	1683	223.446822784784	296
1	1697	225.098739389097	297
1	1697	225.098739389097	298
1	1697	225.098739389097	299
1	1717	228.010969062135	300
1	1717	228.010969062135	301
1	1717	228.010969062135	302
1	1735	229.430750766129	303
1	1735	229.430750766129	304
1	1735	229.430750766129	305
1	1753	230.920917042267	306
1	1753	230.920917042267	307
1	1753	230.920917042267	308
1	1771	232.385739133623	309
1	1771	232.385739133623	310
1	1771	232.385739133623	311
1	1789	233.981557719001	312
1	1789	233.981557719001	313
1	1789	233.981557719001	314
1	1807	235.793734607587	315
1	1807	235.793734607587	316
1	1807	235.793734607587	317
1	1823	238.040776721436	318
1	1823	238.040776721436	319
1	1823	238.040776721436	320
1	1841	239.860910372295	321
1	1841	239.860910372295	322
1	1841	239.860910372295	323
2	7	0.161397929952	0
2	7	0.161397929952	1
2	7	0.161397929952	2
2	23	2.47116965401	3
2	23	2.47116965401	4
2	23	2.47116965401	5
2	34	3.561785339608	6
2	34	3.561785339608	7
2	34	3.561785339608	8
2	61	6.262463252576	9
2	61	6.262463252576	10
2	61	6.262463252576	11
2	72	7.677377350802	12
2	72	7.677377350802	13
2	72	7.677377350802	14
2	93	12.842336147368	15
2	93	12.842336147368	16
2	93	12.842336147368	17
2	114	15.892433474623	18
2	114	15.892433474623	19
2	114	15.892433474623	20
2	139	17.634428909404	21
2	139	17.634428909404	22
2	139	17.634428909404	23
2	167	23.826717496013	24
2	167	23.826717496013	25
2	167	23.826717496013	26
2	185	25.601618020909	27
2	185	25.601618020909	28
2	185	25.601618020909	29
2	207	30.532660305215	30
2	207	30.532660305215	31
2	207	30.532660305215	32
2	225	31.768793918822	33
2	225	31.768793918822	34
2	225	31.768793918822	35
2	247	35.545123010321	36
2	247	35.545123010321	37
2	247	35.545123010321	38
2	267	37.949637858775	39
2	267	37.949637858775	40
2	267	37.949637858775	41
2	285	39.820883133651	42
2	285	39.820883133651	43
2	285	39.820883133651	44
2	305	42.920167823569	45
2	305	42.920167823569	46
2	305	42.920167823569	47
2	325	45.613098835484	48
2	325	45.613098835484	49
2	325	45.613098835484	50
2	343	47.445037926559	51
2	343	47.445037926559	52
2	343	47.445037926559	53
2	361	48.799763188402	54
2	361	48.799763188402	55
2	361	48.799763188402	56
2	381	51.197877686515	57
2	381	51.197877686515	58
2	381	51.197877686515	59
2	405	54.352622743986	60
2	405	54.352622743986	61
2	405	54.352622743986	62
2	416	55.691370025659	63
2	416	55.691370025659	64
2	416	55.691370025659	65
2	445	62.654543350902	66
2	445	62.654543350902	67
2	445	62.654543350902	68
2	464	64.597143438883	69
2	464	64.597143438883	70
2	464	64.597143438883	71
2	483	67.880643660637	72
2	483	67.880643660637	73
2	483	67.880643660637	74
2	503	70.133559443958	75
2	503	70.133559443958	76
2	503	70.133559443958	77
2	523	73.387870603649	78
2	523	73.387870603649	79
2	523	73.387870603649	80
2	546	75.239990113244	81
2	546	75.239990113244	82
2	546	75.239990113244	83
2	559	76.247401545514	84
2	559	76.247401545514	85
2	559	76.247401545514	86
2	573	78.065526357682	87
2	573	78.065526357682	88
2	573	78.065526357682	89
2	592	79.945834732143	90
2	592	79.945834732143	91
2	592	79.945834732143	92
2	609	81.842988819282	93
2	609	81.842988819282	94
2	609	81.842988819282	95
2	641	91.44356249599	96
2	641	91.44356249599	97
2	641	91.44356249599	98
2	668	95.77159344439	99
2	668	95.77159344439	100
2	668	95.77159344439	101
2	686	96.793004642573	102
2	686	96.793004642573	103
2	686	96.793004642573	104
2	711	105.110028490118	105
2	711	105.110028490118	106
2	711	105.110028490118	107
2	731	107.295661233808	108
2	731	107.295661233808	109
2	731	107.295661233808	110
2	751	109.545704553462	111
2	751	109.545704553462	112
2	751	109.545704553462	113
2	776	112.857917376749	114
2	776	112.857917376749	115
2	776	112.857917376749	116
2	790	113.865310341569	117
2	790	113.865310341569	118
2	790	113.865310341569	119
2	807	114.997760764261	120
2	807	114.997760764261	121
2	807	114.997760764261	122
2	835	117.735031038686	123
2	835	117.735031038686	124
2	835	117.735031038686	125
2	855	120.848518617755	126
2	855	120.848518617755	127
2	855	120.848518617755	128
2	881	121.927323297856	129
2	881	121.927323297856	130
2	881	121.927323297856	131
2	899	123.880779608596	132
2	899	123.880779608596	133
2	899	123.880779608596	134
2	909	125.021360398564	135
2	909	125.021360398564	136
2	909	125.021360398564	137
2	927	126.359666108447	138
2	927	126.359666108447	139
2	927	126.359666108447	140
2	942	127.953788806458	141
2	942	127.953788806458	142
2	942	127.953788806458	143
2	955	129.902427099247	144
2	955	129.902427099247	145
2	955	129.902427099247	146
2	973	131.837122008363	147
2	973	131.837122008363	148
2	973	131.837122008363	149
2	991	132.934923175885	150
2	991	132.934923175885	151
2	991	132.934923175885	152
2	1013	134.824494574527	153
2	1013	134.824494574527	154
2	1013	134.824494574527	155
2	1027	136.340404122666	156
2	1027	136.340404122666	157
2	1027	136.340404122666	158
2	1049	143.779252766503	159
2	1049	143.779252766503	160
2	1049	143.779252766503	161
2	1071	145.729319974782	162
2	1071	145.729319974782	163
2	1071	145.729319974782	164
2	1089	146.924234383431	165
2	1089	146.924234383431	166
2	1089	146.924234383431	167
2	1105	150.23699047036	168
2	1105	150.23699047036	169
2	1105	150.23699047036	170
2	1123	151.64332831801	171
2	1123	151.64332831801	172
2	1123	151.64332831801	173
2	1137	153.317395627502	174
2	1137	153.317395627502	175
2	1137	153.317395627502	176
2	1151	154.510487362997	177
2	1151	154.510487362997	178
2	1151	154.510487362997	179
2	1180	161.402308912392	180
2	1180	161.402308912392	181
2	1180	161.402308912392	182
2	1194	163.351325267255	183
2	1194	163.351325267255	184
2	1194	163.351325267255	185
2	1221	166.799492141734	186
2	1221	166.799492141734	187
2	1221	166.799492141734	188
2	1237	170.56085821659	189
2	1237	170.56085821659	190
2	1237	170.56085821659	191
2	1251	172.232574617399	192
2	1251	172.232574617399	193
2	1251	172.232574617399	194
2	1277	176.614814052546	195
2	1277	176.614814052546	196
2	1277	176.614814052546	197
2	1291	177.794259934366	198
2	1291	177.794259934366	199
2	1291	177.794259934366	200
2	1308	180.099624776223	201
2	1308	180.099624776223	202
2	1308	180.099624776223	203
2	1325	181.719955498437	204
2	1325	181.719955498437	205
2	1325	181.719955498437	206
2	1343	183.691254060082	207
2	1343	183.691254060082	208
2	1343	183.691254060082	209
2	1361	184.745410724564	210
2	1361	184.745410724564	211
2	1361	184.745410724564	212
2	1379	186.260449926278	213
2	1379	186.260449926278	214
2	1379	186.260449926278	215
2	1399	188.987430844046	216
2	1399	188.987430844046	217
2	1399	188.987430844046	218
2	1433	193.510607819224	219
2	1433	193.510607819224	220
2	1433	193.510607819224	221
2	1445	196.316273979536	222
2	1445	196.316273979536	223
2	1445	196.316273979536	224
2	1471	200.914418755877	225
2	1471	200.914418755877	226
2	1471	200.914418755877	227
2	1489	202.807567178362	228
2	1489	202.807567178362	229
2	1489	202.807567178362	230
2	1503	204.303125720448	231
2	1503	204.303125720448	232
2	1503	204.303125720448	233
2	1526	205.876219632747	234
2	1526	205.876219632747	235
2	1526	205.876219632747	236
2	1539	207.158614966594	237
2	1539	207.158614966594	238
2	1539	207.158614966594	239
2	1567	210.045824442086	240
2	1567	210.045824442086	241
2	1567	210.045824442086	242
2	1581	211.982340254434	243
2	1581	211.982340254434	244
2	1581	211.982340254434	245
2	1595	213.507866576834	246
2	1595	213.507866576834	247
2	1595	213.507866576834	248
2	1613	215.305943609948	249
2	1613	215.305943609948	250
2	1613	215.305943609948	251
2	1634	218.204481546585	252
2	1634	218.204481546585	253
2	1634	218.204481546585	254
2	1656	220.138170056405	255
2	1656	220.138170056405	256
2	1656	220.138170056405	257
2	1670	221.569795164181	258
2	1670	221.569795164181	259
2	1670	221.569795164181	260
2	1687	223.473040107156	261
2	1687	223.473040107156	262
2	1687	223.473040107156	263
2	1701	225.114411967955	264
2	1701	225.114411967955	265
2	1701	225.114411967955	266
2	1722	228.021530182602	267
2	1722	228.021530182602	268
2	1722	228.021530182602	269
2	1739	229.44441157237	270
2	1739	229.44441157237	271
2	1739	229.44441157237	272
2	1758	230.934303306226	273
2	1758	230.934303306226	274
2	1758	230.934303306226	275
2	1775	232.416969587317	276
2	1775	232.416969587317	277
2	1775	232.416969587317	278
2	1798	234.017885875962	279
2	1798	234.017885875962	280
2	1798	234.017885875962	281
2	1827	238.054741319825	282
2	1827	238.054741319825	283
2	1827	238.054741319825	284
2	1845	239.876272088959	285
2	1845	239.876272088959	286
2	1845	239.876272088959	287
3	11	0.194059795375	0
3	11	0.194059795375	1
3	11	0.194059795375	2
3	33	3.553844285056	3
3	33	3.553844285056	4
3	33	3.553844285056	5
3	53	6.224914404448	6
3	53	6.224914404448	7
3	53	6.224914404448	8
3	71	7.667748696629	9
3	71	7.667748696629	10
3	71	7.667748696629	11
3	94	12.847827550131	12
3	94	12.847827550131	13
3	94	12.847827550131	14
3	113	15.890999130893	15
3	113	15.890999130893	16
3	113	15.890999130893	17
3	131	17.588814329227	18
3	131	17.588814329227	19
3	131	17.588814329227	20
3	149	19.121672508657	21
3	149	19.121672508657	22
3	149	19.121672508657	23
3	171	23.844504975322	24
3	171	23.844504975322	25
3	171	23.844504975322	26
3	186	25.606420947145	27
3	186	25.606420947145	28
3	186	25.606420947145	29
3	212	30.549414831658	30
3	212	30.549414831658	31
3	212	30.549414831658	32
3	226	31.769302158342	33
3	226	31.769302158342	34
3	226	31.769302158342	35
3	248	35.54842983689	36
3	248	35.54842983689	37
3	248	35.54842983689	38
3	271	37.965942619802	39
3	271	37.965942619802	40
3	271	37.965942619802	41
3	289	39.832675435408	42
3	289	39.832675435408	43
3	289	39.832675435408	44
3	309	42.939471497498	45
3	309	42.939471497498	46
3	309	42.939471497498	47
3	329	45.626482272057	48
3	329	45.626482272057	49
3	329	45.626482272057	50
3	344	47.445540978212	51
3	344	47.445540978212	52
3	344	47.445540978212	53
3	365	48.813965329702	54
3	365	48.813965329702	55
3	365	48.813965329702	56
3	382	51.203451471671	57
3	382	51.203451471671	58
3	382	51.203451471671	59
3	401	54.337170876421	60
3	401	54.337170876421	61
3	401	54.337170876421	62
3	415	55.69043485786	63
3	415	55.69043485786	64
3	415	55.69043485786	65
3	449	62.673174722452	66
3	449	62.673174722452	67
3	449	62.673174722452	68
3	463	64.596000673129	69
3	463	64.596000673129	70
3	463	64.596000673129	71
3	488	67.896043920599	72
3	488	67.896043920599	73
3	488	67.896043920599	74
3	508	70.153574003088	75
3	508	70.153574003088	76
3	508	70.153574003088	77
3	527	73.404039291483	78
3	527	73.404039291483	79
3	527	73.404039291483	80
3	541	75.219457334184	81
3	541	75.219457334184	82
3	541	75.219457334184	83
3	560	76.249375134428	84
3	560	76.249375134428	85
3	560	76.249375134428	86
3	574	78.070912286355	87
3	574	78.070912286355	88
3	574	78.070912286355	89
3	591	79.93720067587	90
3	591	79.93720067587	91
3	591	79.93720067587	92
3	610	81.845670758739	93
3	610	81.845670758739	94
3	610	81.845670758739	95
3	649	91.47576836306	96
3	649	91.47576836306	97
3	649	91.47576836306	98
3	667	95.768489334743	99
3	667	95.768489334743	100
3	667	95.768489334743	101
3	685	96.78871308035	102
3	685	96.78871308035	103
3	685	96.78871308035	104
3	715	105.120095657379	105
3	715	105.120095657379	106
3	715	105.120095657379	107
3	732	107.303049029414	108
3	732	107.303049029414	109
3	732	107.303049029414	110
3	752	109.554222542617	111
3	752	109.554222542617	112
3	752	109.554222542617	113
3	771	112.824374210592	114
3	771	112.824374210592	115
3	771	112.824374210592	116
3	789	113.8630848049	117
3	789	113.8630848049	118
3	789	113.8630848049	119
3	803	114.986084498219	120
3	803	114.986084498219	121
3	803	114.986084498219	122
3	821	116.051998604623	123
3	821	116.051998604623	124
3	821	116.051998604623	125
3	836	117.740255263967	126
3	836	117.740255263967	127
3	836	117.740255263967	128
3	859	120.860475907526	129
3	859	120.860475907526	130
3	859	120.860475907526	131
3	873	121.879427798564	132
3	873	121.879427798564	133
3	873	121.879427798564	134
3	891	123.843917504014	135
3	891	123.843917504014	136
3	891	123.843917504014	137
3	919	126.304709053989	138
3	919	126.304709053989	139
3	919	126.304709053989	140
3	937	127.933891736521	141
3	937	127.933891736521	142
3	937	127.933891736521	143
3	959	129.913801450145	144
3	959	129.913801450145	145
3	959	129.913801450145	146
3	974	131.838022793987	147
3	974	131.838022793987	148
3	974	131.838022793987	149
3	996	132.955401756959	150
3	996	132.955401756959	151
3	996	132.955401756959	152
3	1009	134.79623408553	153
3	1009	134.79623408553	154
3	1009	134.79623408553	155
3	1023	136.328713138008	156
3	1023	136.328713138008	157
3	1023	136.328713138008	158
3	1050	143.782854739097	159
3	1050	143.782854739097	160
3	1050	143.782854739097	161
3	1067	145.710033358055	162
3	1067	145.710033358055	163
3	1067	145.710033358055	164
3	1085	146.903482126797	165
3	1085	146.903482126797	166
3	1085	146.903482126797	167
3	1113	150.26364719974	168
3	1113	150.26364719974	169
3	1113	150.26364719974	170
3	1133	153.304578214446	171
3	1133	153.304578214446	172
3	1133	153.304578214446	173
3	1152	154.517171097248	174
3	1152	154.517171097248	175
3	1152	154.517171097248	176
3	1179	161.401180026364	177
3	1179	161.401180026364	178
3	1179	161.401180026364	179
3	1193	163.348947604572	180
3	1193	163.348947604572	181
3	1193	163.348947604572	182
3	1213	166.761044258642	183
3	1213	166.761044258642	184
3	1213	166.761044258642	185
3	1233	170.539831547731	186
3	1233	170.539831547731	187
3	1233	170.539831547731	188
3	1255	172.24696977557	189
3	1255	172.24696977557	190
3	1255	172.24696977557	191
3	1273	176.601171607904	192
3	1273	176.601171607904	193
3	1273	176.601171607904	194
3	1307	180.096368311294	195
3	1307	180.096368311294	196
3	1307	180.096368311294	197
3	1333	181.762382856082	198
3	1333	181.762382856082	199
3	1333	181.762382856082	200
3	1347	183.702861302564	201
3	1347	183.702861302564	202
3	1347	183.702861302564	203
3	1362	184.750899102184	204
3	1362	184.750899102184	205
3	1362	184.750899102184	206
3	1383	186.273289585473	207
3	1383	186.273289585473	208
3	1383	186.273289585473	209
3	1400	188.990349788366	210
3	1400	188.990349788366	211
3	1400	188.990349788366	212
3	1425	193.477791916076	213
3	1425	193.477791916076	214
3	1425	193.477791916076	215
3	1449	196.327087590932	216
3	1449	196.327087590932	217
3	1449	196.327087590932	218
3	1472	200.919741431028	219
3	1472	200.919741431028	220
3	1472	200.919741431028	221
3	1493	202.821188816741	222
3	1493	202.821188816741	223
3	1493	202.821188816741	224
3	1508	204.325528089825	225
3	1508	204.325528089825	226
3	1508	204.325528089825	227
3	1521	205.851989156831	228
3	1521	205.851989156831	229
3	1521	205.851989156831	230
3	1543	207.175696195169	231
3	1543	207.175696195169	232
3	1543	207.175696195169	233
3	1563	210.028866386739	234
3	1563	210.028866386739	235
3	1563	210.028866386739	236
3	1582	211.985338288245	237
3	1582	211.985338288245	238
3	1582	211.985338288245	239
3	1599	213.553489269783	240
3	1599	213.553489269783	241
3	1599	213.553489269783	242
3	1614	215.310060955087	243
3	1614	215.310060955087	244
3	1614	215.310060955087	245
3	1633	218.198729933113	246
3	1633	218.198729933113	247
3	1633	218.198729933113	248
3	1651	220.117601339397	249
3	1651	220.117601339397	250
3	1651	220.117601339397	251
3	1669	221.563015807546	252
3	1669	221.563015807546	253
3	1669	221.563015807546	254
3	1691	223.49127015015	255
3	1691	223.49127015015	256
3	1691	223.49127015015	257
3	1702	225.116866836295	258
3	1702	225.116866836295	259
3	1702	225.116866836295	260
3	1721	228.021067291582	261
3	1721	228.021067291582	262
3	1721	228.021067291582	263
3	1740	229.451498311618	264
3	1740	229.451498311618	265
3	1740	229.451498311618	266
3	1757	230.932968671056	267
3	1757	230.932968671056	268
3	1757	230.932968671056	269
3	1776	232.418824521551	270
3	1776	232.418824521551	271
3	1776	232.418824521551	272
3	1793	233.994396537451	273
3	1793	233.994396537451	274
3	1793	233.994396537451	275
3	1811	235.85647169035	276
3	1811	235.85647169035	277
3	1811	235.85647169035	278
3	1828	238.055221461257	279
3	1828	238.055221461257	280
3	1828	238.055221461257	281
3	1849	239.900696377202	282
3	1849	239.900696377202	283
3	1849	239.900696377202	284
4	57	6.239824164768	0
4	57	6.239824164768	1
4	57	6.239824164768	2
4	79	7.69025115918	3
4	79	7.69025115918	4
4	79	7.69025115918	5
4	101	12.858398910342	6
4	101	12.858398910342	7
4	101	12.858398910342	8
4	121	15.917520614083	9
4	121	15.917520614083	10
4	121	15.917520614083	11
4	135	17.601593962707	12
4	135	17.601593962707	13
4	135	17.601593962707	14
4	153	19.132425803469	15
4	153	19.132425803469	16
4	153	19.132425803469	17
4	172	23.848999488528	18
4	172	23.848999488528	19
4	172	23.848999488528	20
4	193	25.636149224648	21
4	193	25.636149224648	22
4	193	25.636149224648	23
4	211	30.543601114116	24
4	211	30.543601114116	25
4	211	30.543601114116	26
4	233	31.801086632466	27
4	233	31.801086632466	28
4	233	31.801086632466	29
4	255	35.586461353953	30
4	255	35.586461353953	31
4	255	35.586461353953	32
4	275	37.998535034229	33
4	275	37.998535034229	34
4	275	37.998535034229	35
4	293	39.849298070366	36
4	293	39.849298070366	37
4	293	39.849298070366	38
4	310	42.946210552102	39
4	310	42.946210552102	40
4	310	42.946210552102	41
4	333	45.657053556603	42
4	333	45.657053556603	43
4	333	45.657053556603	44
4	351	47.462791189112	45
4	351	47.462791189112	46
4	351	47.462791189112	47
4	369	48.839430293122	48
4	369	48.839430293122	49
4	369	48.839430293122	50
4	389	51.214864331198	51
4	389	51.214864331198	52
4	389	51.214864331198	53
4	423	55.706491932796	54
4	423	55.706491932796	55
4	423	55.706491932796	56
4	450	62.676410083102	57
4	450	62.676410083102	58
4	450	62.676410083102	59
4	471	64.620298586751	60
4	471	64.620298586751	61
4	471	64.620298586751	62
4	487	67.890686416316	63
4	487	67.890686416316	64
4	487	67.890686416316	65
4	507	70.149827292241	66
4	507	70.149827292241	67
4	507	70.149827292241	68
4	528	73.413012027449	69
4	528	73.413012027449	70
4	528	73.413012027449	71
4	545	75.231526973133	72
4	545	75.231526973133	73
4	545	75.231526973133	74
4	581	78.082133196987	75
4	581	78.082133196987	76
4	581	78.082133196987	77
4	596	79.947645484478	78
4	596	79.947645484478	79
4	596	79.947645484478	80
4	617	81.87328045894	81
4	617	81.87328045894	82
4	617	81.87328045894	83
4	645	91.45858876904	84
4	645	91.45858876904	85
4	645	91.45858876904	86
4	675	95.787043832636	87
4	675	95.787043832636	88
4	675	95.787043832636	89
4	693	96.80336773691	90
4	693	96.80336773691	91
4	693	96.80336773691	92
4	716	105.125012058848	93
4	716	105.125012058848	94
4	716	105.125012058848	95
4	736	107.309891723813	96
4	736	107.309891723813	97
4	736	107.309891723813	98
4	759	109.569791158754	99
4	759	109.569791158754	100
4	759	109.569791158754	101
4	775	112.85633972106	102
4	775	112.85633972106	103
4	775	112.85633972106	104
4	811	115.039336493966	105
4	811	115.039336493966	106
4	811	115.039336493966	107
4	825	116.065638641764	108
4	825	116.065638641764	109
4	825	116.065638641764	110
4	840	117.746596369351	111
4	840	117.746596369351	112
4	840	117.746596369351	113
4	863	120.879769936352	114
4	863	120.879769936352	115
4	863	120.879769936352	116
4	877	121.894395411128	117
4	877	121.894395411128	118
4	877	121.894395411128	119
4	895	123.870293117752	120
4	895	123.870293117752	121
4	895	123.870293117752	122
4	923	126.334329737361	123
4	923	126.334329737361	124
4	923	126.334329737361	125
4	941	127.948667599636	126
4	941	127.948667599636	127
4	941	127.948667599636	128
4	960	129.919570252484	129
4	960	129.919570252484	130
4	960	129.919570252484	131
4	981	131.852666383272	132
4	981	131.852666383272	133
4	981	131.852666383272	134
4	995	132.945752783384	135
4	995	132.945752783384	136
4	995	132.945752783384	137
4	1031	136.352051629069	138
4	1031	136.352051629069	139
4	1031	136.352051629069	140
4	1054	143.790865684638	141
4	1054	143.790865684638	142
4	1054	143.790865684638	143
4	1075	145.740505133823	144
4	1075	145.740505133823	145
4	1075	145.740505133823	146
4	1093	146.945744347271	147
4	1093	146.945744347271	148
4	1093	146.945744347271	149
4	1109	150.247063658812	150
4	1109	150.247063658812	151
4	1109	150.247063658812	152
4	1141	153.335368933866	153
4	1141	153.335368933866	154
4	1141	153.335368933866	155
4	1159	154.536743265448	156
4	1159	154.536743265448	157
4	1159	154.536743265448	158
4	1198	163.361293858754	159
4	1198	163.361293858754	160
4	1198	163.361293858754	161
4	1217	166.775300861338	162
4	1217	166.775300861338	163
4	1217	166.775300861338	164
4	1238	170.562387623941	165
4	1238	170.562387623941	166
4	1238	170.562387623941	167
4	1259	172.268388722732	168
4	1259	172.268388722732	169
4	1259	172.268388722732	170
4	1278	176.61572481304	171
4	1278	176.61572481304	172
4	1278	176.61572481304	173
4	1312	180.107344151214	174
4	1312	180.107344151214	175
4	1312	180.107344151214	176
4	1329	181.737061713619	177
4	1329	181.737061713619	178
4	1329	181.737061713619	179
4	1348	183.709511599768	180
4	1348	183.709511599768	181
4	1348	183.709511599768	182
4	1366	184.758804764991	183
4	1366	184.758804764991	184
4	1366	184.758804764991	185
4	1384	186.273899137645	186
4	1384	186.273899137645	187
4	1384	186.273899137645	188
4	1407	189.008052192395	189
4	1407	189.008052192395	190
4	1407	189.008052192395	191
4	1429	193.491502862516	192
4	1429	193.491502862516	193
4	1429	193.491502862516	194
4	1453	196.341014397399	195
4	1453	196.341014397399	196
4	1453	196.341014397399	197
4	1476	200.926690445771	198
4	1476	200.926690445771	199
4	1476	200.926690445771	200
4	1507	204.320841641622	201
4	1507	204.320841641622	202
4	1507	204.320841641622	203
4	1525	205.875032664054	204
4	1525	205.875032664054	205
4	1525	205.875032664054	206
4	1544	207.181805968257	207
4	1544	207.181805968257	208
4	1544	207.181805968257	209
4	1568	210.048446561174	210
4	1568	210.048446561174	211
4	1568	210.048446561174	212
4	1603	213.565646289076	213
4	1603	213.565646289076	214
4	1603	213.565646289076	215
4	1621	215.3207554854	216
4	1621	215.3207554854	217
4	1621	215.3207554854	218
4	1641	218.223315941172	219
4	1641	218.223315941172	220
4	1641	218.223315941172	221
4	1655	220.130701040161	222
4	1655	220.130701040161	223
4	1655	220.130701040161	224
4	1677	221.59274772346	225
4	1677	221.59274772346	226
4	1677	221.59274772346	227
4	1709	225.140669529677	228
4	1709	225.140669529677	229
4	1709	225.140669529677	230
4	1729	228.032300304937	231
4	1729	228.032300304937	232
4	1729	228.032300304937	233
4	1747	229.46419619558	234
4	1747	229.46419619558	235
4	1747	229.46419619558	236
4	1765	230.946746205771	237
4	1765	230.946746205771	238
4	1765	230.946746205771	239
4	1783	232.436017084618	240
4	1783	232.436017084618	241
4	1783	232.436017084618	242
4	1797	234.014056050404	243
4	1797	234.014056050404	244
4	1797	234.014056050404	245
4	1815	235.875314226067	246
4	1815	235.875314226067	247
4	1815	235.875314226067	248
4	1835	238.076236996303	249
4	1835	238.076236996303	250
4	1835	238.076236996303	251
4	1853	239.922169733781	252
4	1853	239.922169733781	253
4	1853	239.922169733781	254
5	82	7.70025115918	0
5	104	12.868398910342	1
5	124	15.927520614083	2
5	178	23.858999488528	3
5	196	25.646149224648	4
5	236	31.811086632466	5
5	296	39.859298070366	6
5	354	47.472791189112	7
5	392	51.224864331198	8
5	426	55.716491932796	9
5	456	62.686410083102	10
5	491	67.900686416316	11
5	511	70.159827292241	12
5	534	73.423012027449	13
5	549	75.241526973133	14
5	620	81.88328045894	15
5	648	91.46858876904	16
5	678	95.797043832636	17
5	696	96.81336773691	18
5	722	105.135012058848	19
5	742	107.319891723813	20
5	762	109.579791158754	21
5	814	115.049336493966	22
5	828	116.075638641764	23
5	866	120.889769936352	24
5	880	121.904395411128	25
5	898	123.880293117752	26
5	926	126.344329737361	27
5	945	127.958667599636	28
5	966	129.929570252484	29
5	984	131.862666383272	30
5	999	132.955752783384	31
5	1060	143.800865684638	32
5	1078	145.750505133823	33
5	1096	146.955744347271	34
5	1112	150.257063658812	35
5	1220	166.785300861338	36
5	1244	170.572387623941	37
5	1262	172.278388722732	38
5	1332	181.747061713619	39
5	1354	183.719511599768	40
5	1372	184.768804764991	41
5	1390	186.283899137645	42
5	1432	193.501502862516	43
5	1511	204.330841641622	44
5	1529	205.885032664054	45
5	1550	207.191805968257	46
5	1574	210.058446561174	47
5	1624	215.3307554854	48
5	1644	218.233315941172	49
5	1659	220.140701040161	50
5	1680	221.60274772346	51
5	1712	225.150669529677	52
5	1732	228.042300304937	53
5	1768	230.956746205771	54
5	1786	232.446017084618	55
5	1818	235.885314226067	56
5	1838	238.086236996303	57
5	1856	239.932169733781	58

