version 2
run General-0-20230921-21:33:47-5605
attr configname General
attr datetime 20230921-21:33:47
attr experiment General
attr inifile omnetpp.ini
attr iterationvars ""
attr iterationvarsf ""
attr measurement ""
attr network Network1
attr processid 5605
attr repetition 0
attr replication #0
attr resultdir results
attr runnumber 0
attr seedset 0
param Network1.node[*].transmissionTime "uniform(1s, 2s)"
param Network1.node[*].delayTime "uniform(0.01s, 0.2s)"
param Network1.node[*].processingTime exponential(0.01s)
param Network1.node[*].lossProbability 0.3

vector 0 Network1.node[0] txVector ETV
vector 1 Network1.node[1] txVector ETV
vector 2 Network1.node[3] txVector ETV
vector 3 Network1.node[2] txVector ETV
vector 4 Network1.node[4] txVector ETV
vector 5 Network1.node[5] rxVector ETV
0	1	0.114274565438	0
0	19	1.707119181827	1
0	33	3.184784293482	2
0	51	4.553025830844	3
0	53	6.135045622084	4
0	71	7.672418850315	5
0	89	8.822093714102	6
0	107	10.4752337463	7
0	109	12.128024065242	8
0	111	13.7630829423	9
0	129	15.758382507906	10
0	135	17.707953559308	11
0	153	19.33079965257	12
0	155	21.310386383048	13
0	157	22.669830852029	14
0	159	24.150724388267	15
0	177	25.839385574524	16
0	195	26.922498061162	17
0	213	28.087438521747	18
0	231	29.983476911046	19
0	249	31.658915988243	20
0	267	33.277724549248	21
0	285	34.370098435859	22
0	303	36.354140671276	23
0	305	37.391700055756	24
0	319	38.900015506035	25
0	333	40.882590462759	26
0	347	42.647502160704	27
0	365	43.818488753474	28
0	367	45.517586831077	29
0	385	47.50998322673	30
0	399	48.728732594595	31
0	417	50.216570300589	32
0	435	51.823615361544	33
0	453	53.469399961251	34
0	455	54.952808578805	35
0	473	56.74154800021	36
0	491	58.387812435235	37
0	497	59.850962631711	38
0	511	61.015921503146	39
0	521	62.76517591982	40
0	523	64.442439226507	41
0	525	65.505477519081	42
0	543	67.061126756323	43
0	561	68.667602218529	44
0	579	70.512152296332	45
0	597	71.781631732666	46
0	615	73.125237232148	47
0	633	75.07810790332	48
0	643	76.830242421319	49
0	645	78.422177585148	50
0	663	79.898654789039	51
0	665	80.985031769685	52
0	679	82.645071631372	53
0	697	84.53712129321	54
0	715	85.951688771211	55
0	721	87.277373537729	56
0	739	88.406785875401	57
0	757	89.8800065446	58
0	775	91.383433971164	59
0	789	92.477891886915	60
0	807	93.784877939458	61
0	821	94.883355942863	62
0	839	96.396430809359	63
0	857	97.641082218225	64
0	859	99.442918368458	65
0	861	100.513365557726	66
0	879	102.19693852014	67
0	897	103.644082359114	68
0	907	105.341223969433	69
0	925	106.830733291415	70
0	943	108.155138152727	71
0	957	109.356655865285	72
0	975	111.064573326922	73
0	993	112.137007773231	74
0	1011	114.107082848746	75
0	1029	116.074203973014	76
0	1047	118.018911451643	77
0	1049	119.318554947229	78
0	1067	120.778774655035	79
0	1069	122.747638756719	80
0	1071	124.438532484074	81
0	1089	125.537948876929	82
0	1091	127.452739540564	83
0	1109	129.120024380583	84
0	1111	130.926693709643	85
0	1113	132.387700538227	86
0	1131	134.214524756029	87
0	1145	135.756654212095	88
0	1163	137.073142131634	89
0	1181	138.408773110557	90
0	1199	139.843533748604	91
0	1201	141.81375555236	92
0	1207	143.477621618734	93
0	1225	145.403323767317	94
0	1227	146.996104039095	95
0	1229	148.350610098645	96
0	1247	150.007629874704	97
0	1261	151.274326750386	98
0	1263	152.296015473624	99
0	1281	153.433266824886	100
0	1299	154.485774986988	101
0	1317	155.576007969055	102
0	1335	157.084398355411	103
0	1353	158.941153602983	104
0	1371	160.265236297698	105
0	1389	161.350469358574	106
0	1407	163.146788771806	107
0	1409	164.421363821795	108
0	1411	165.430053740583	109
0	1413	166.454998469988	110
0	1415	167.599284568645	111
0	1417	169.113044303453	112
0	1435	170.335702236353	113
0	1453	171.637394704234	114
0	1471	172.830112676213	115
0	1473	174.344167150168	116
0	1491	175.441660535831	117
0	1509	177.128022580251	118
0	1527	178.850206599181	119
0	1545	180.422050233541	120
0	1547	182.195085212199	121
0	1561	183.941669499578	122
0	1579	185.916659310537	123
0	1597	187.794410097024	124
0	1615	189.01887703392	125
0	1629	190.619070243168	126
0	1631	191.700441965212	127
0	1633	193.022459304969	128
0	1647	194.633786726588	129
0	1649	195.898119486946	130
0	1667	197.246476236576	131
0	1685	198.801079622548	132
0	1703	200.469685465408	133
0	1705	202.341987976184	134
0	1723	203.498641463773	135
0	1725	205.129512528967	136
0	1743	206.823258243346	137
0	1757	208.532155797662	138
0	1763	210.510327970687	139
0	1781	212.031202765492	140
0	1799	213.076437253583	141
0	1817	214.965052747944	142
0	1819	216.690046842055	143
0	1837	217.854535252167	144
0	1855	219.428567095971	145
0	1873	221.392542816079	146
0	1875	223.324838128951	147
0	1893	225.317839442133	148
0	1911	226.710270009083	149
0	1925	227.917565986128	150
0	1939	229.409157414535	151
0	1957	231.31173762268	152
0	1975	233.102199912384	153
0	1977	234.537026549537	154
0	1995	235.950827567918	155
0	1997	237.43053472539	156
0	2015	239.018501848528	157
1	3	0.142870607559	0
1	3	0.142870607559	1
1	3	0.142870607559	2
1	21	1.73384129383	3
1	21	1.73384129383	4
1	21	1.73384129383	5
1	35	3.226285992769	6
1	35	3.226285992769	7
1	35	3.226285992769	8
1	55	6.159259268885	9
1	55	6.159259268885	10
1	55	6.159259268885	11
1	73	7.684933269636	12
1	73	7.684933269636	13
1	73	7.684933269636	14
1	91	8.833967974762	15
1	91	8.833967974762	16
1	91	8.833967974762	17
1	113	13.781802100836	18
1	113	13.781802100836	19
1	113	13.781802100836	20
1	131	15.779245201715	21
1	131	15.779245201715	22
1	131	15.779245201715	23
1	137	17.729151702966	24
1	137	17.729151702966	25
1	137	17.729151702966	26
1	161	24.181966760237	27
1	161	24.181966760237	28
1	161	24.181966760237	29
1	179	25.852638978679	30
1	179	25.852638978679	31
1	179	25.852638978679	32
1	197	26.937115370122	33
1	197	26.937115370122	34
1	197	26.937115370122	35
1	215	28.107625109047	36
1	215	28.107625109047	37
1	215	28.107625109047	38
1	233	29.996351015807	39
1	233	29.996351015807	40
1	233	29.996351015807	41
1	251	31.675357035326	42
1	251	31.675357035326	43
1	251	31.675357035326	44
1	269	33.292094829386	45
1	269	33.292094829386	46
1	269	33.292094829386	47
1	287	34.383114094991	48
1	287	34.383114094991	49
1	287	34.383114094991	50
1	307	37.403525441775	51
1	307	37.403525441775	52
1	307	37.403525441775	53
1	321	38.914688231699	54
1	321	38.914688231699	55
1	321	38.914688231699	56
1	335	40.92143658028	57
1	335	40.92143658028	58
1	335	40.92143658028	59
1	349	42.663728134144	60
1	349	42.663728134144	61
1	349	42.663728134144	62
1	369	45.530696509127	63
1	369	45.530696509127	64
1	369	45.530696509127	65
1	387	47.528413014484	66
1	387	47.528413014484	67
1	387	47.528413014484	68
1	401	48.76001929554	69
1	401	48.76001929554	70
1	401	48.76001929554	71
1	419	50.23911233329	72
1	419	50.23911233329	73
1	419	50.23911233329	74
1	437	51.837541091826	75
1	437	51.837541091826	76
1	437	51.837541091826	77
1	457	54.965414980099	78
1	457	54.965414980099	79
1	457	54.965414980099	80
1	475	56.753967196658	81
1	475	56.753967196658	82
1	475	56.753967196658	83
1	493	58.416165069264	84
1	493	58.416165069264	85
1	493	58.416165069264	86
1	499	59.862296037944	87
1	499	59.862296037944	88
1	499	59.862296037944	89
1	513	61.039077765729	90
1	513	61.039077765729	91
1	513	61.039077765729	92
1	527	65.515570349325	93
1	527	65.515570349325	94
1	527	65.515570349325	95
1	545	67.073590914545	96
1	545	67.073590914545	97
1	545	67.073590914545	98
1	563	68.679763180695	99
1	563	68.679763180695	100
1	563	68.679763180695	101
1	581	70.527436968615	102
1	581	70.527436968615	103
1	581	70.527436968615	104
1	599	71.80718467627	105
1	599	71.80718467627	106
1	599	71.80718467627	107
1	617	73.13537769806	108
1	617	73.13537769806	109
1	617	73.13537769806	110
1	635	75.105804101552	111
1	635	75.105804101552	112
1	635	75.105804101552	113
1	647	78.438870613868	114
1	647	78.438870613868	115
1	647	78.438870613868	116
1	667	80.997345979405	117
1	667	80.997345979405	118
1	667	80.997345979405	119
1	681	82.656504161586	120
1	681	82.656504161586	121
1	681	82.656504161586	122
1	699	84.549034253669	123
1	699	84.549034253669	124
1	699	84.549034253669	125
1	717	85.963278891379	126
1	717	85.963278891379	127
1	717	85.963278891379	128
1	723	87.296022918823	129
1	723	87.296022918823	130
1	723	87.296022918823	131
1	741	88.425465575221	132
1	741	88.425465575221	133
1	741	88.425465575221	134
1	759	89.920737296828	135
1	759	89.920737296828	136
1	759	89.920737296828	137
1	777	91.403474482903	138
1	777	91.403474482903	139
1	777	91.403474482903	140
1	791	92.489167622653	141
1	791	92.489167622653	142
1	791	92.489167622653	143
1	809	93.795843352248	144
1	809	93.795843352248	145
1	809	93.795843352248	146
1	823	94.903849364522	147
1	823	94.903849364522	148
1	823	94.903849364522	149
1	841	96.411120022632	150
1	841	96.411120022632	151
1	841	96.411120022632	152
1	863	100.528157684671	153
1	863	100.528157684671	154
1	863	100.528157684671	155
1	881	102.241644970945	156
1	881	102.241644970945	157
1	881	102.241644970945	158
1	899	103.676819430781	159
1	899	103.676819430781	160
1	899	103.676819430781	161
1	909	105.373436111265	162
1	909	105.373436111265	163
1	909	105.373436111265	164
1	927	106.852131245482	165
1	927	106.852131245482	166
1	927	106.852131245482	167
1	945	108.17309037474	168
1	945	108.17309037474	169
1	945	108.17309037474	170
1	959	109.379002664046	171
1	959	109.379002664046	172
1	959	109.379002664046	173
1	977	111.074768219852	174
1	977	111.074768219852	175
1	977	111.074768219852	176
1	995	112.147266053675	177
1	995	112.147266053675	178
1	995	112.147266053675	179
1	1013	114.118929007475	180
1	1013	114.118929007475	181
1	1013	114.118929007475	182
1	1031	116.106540371525	183
1	1031	116.106540371525	184
1	1031	116.106540371525	185
1	1051	119.328803279306	186
1	1051	119.328803279306	187
1	1051	119.328803279306	188
1	1073	124.45195423099	189
1	1073	124.45195423099	190
1	1073	124.45195423099	191
1	1093	127.468549627119	192
1	1093	127.468549627119	193
1	1093	127.468549627119	194
1	1115	132.405446675591	195
1	1115	132.405446675591	196
1	1115	132.405446675591	197
1	1133	134.225813542489	198
1	1133	134.225813542489	199
1	1133	134.225813542489	200
1	1147	135.769484936453	201
1	1147	135.769484936453	202
1	1147	135.769484936453	203
1	1165	137.092964513478	204
1	1165	137.092964513478	205
1	1165	137.092964513478	206
1	1183	138.420850143419	207
1	1183	138.420850143419	208
1	1183	138.420850143419	209
1	1203	141.827224841192	210
1	1203	141.827224841192	211
1	1203	141.827224841192	212
1	1209	143.491321410532	213
1	1209	143.491321410532	214
1	1209	143.491321410532	215
1	1231	148.371174508587	216
1	1231	148.371174508587	217
1	1231	148.371174508587	218
1	1249	150.025932481172	219
1	1249	150.025932481172	220
1	1249	150.025932481172	221
1	1265	152.309035023659	222
1	1265	152.309035023659	223
1	1265	152.309035023659	224
1	1283	153.452335455959	225
1	1283	153.452335455959	226
1	1283	153.452335455959	227
1	1301	154.505429344985	228
1	1301	154.505429344985	229
1	1301	154.505429344985	230
1	1319	155.620199334082	231
1	1319	155.620199334082	232
1	1319	155.620199334082	233
1	1337	157.099501069389	234
1	1337	157.099501069389	235
1	1337	157.099501069389	236
1	1355	158.954954793296	237
1	1355	158.954954793296	238
1	1355	158.954954793296	239
1	1373	160.2861927964	240
1	1373	160.2861927964	241
1	1373	160.2861927964	242
1	1391	161.408845233065	243
1	1391	161.408845233065	244
1	1391	161.408845233065	245
1	1419	169.127656561229	246
1	1419	169.127656561229	247
1	1419	169.127656561229	248
1	1437	170.346432361791	249
1	1437	170.346432361791	250
1	1437	170.346432361791	251
1	1455	171.672416284059	252
1	1455	171.672416284059	253
1	1455	171.672416284059	254
1	1475	174.373262700353	255
1	1475	174.373262700353	256
1	1475	174.373262700353	257
1	1493	175.489297343766	258
1	1493	175.489297343766	259
1	1493	175.489297343766	260
1	1511	177.138357127842	261
1	1511	177.138357127842	262
1	1511	177.138357127842	263
1	1529	178.875109090048	264
1	1529	178.875109090048	265
1	1529	178.875109090048	266
1	1549	182.217866075138	267
1	1549	182.217866075138	268
1	1549	182.217866075138	269
1	1563	183.955248026301	270
1	1563	183.955248026301	271
1	1563	183.955248026301	272
1	1581	185.932315539747	273
1	1581	185.932315539747	274
1	1581	185.932315539747	275
1	1599	187.8046607429	276
1	1599	187.8046607429	277
1	1599	187.8046607429	278
1	1617	189.039492567083	279
1	1617	189.039492567083	280
1	1617	189.039492567083	281
1	1635	193.0370420506	282
1	1635	193.0370420506	283
1	1635	193.0370420506	284
1	1651	195.909043362134	285
1	1651	195.909043362134	286
1	1651	195.909043362134	287
1	1669	197.256737176226	288
1	1669	197.256737176226	289
1	1669	197.256737176226	290
1	1687	198.818974388496	291
1	1687	198.818974388496	292
1	1687	198.818974388496	293
1	1707	202.363512086378	294
1	1707	202.363512086378	295
1	1707	202.363512086378	296
1	1727	205.140635875774	297
1	1727	205.140635875774	298
1	1727	205.140635875774	299
1	1745	206.842110411793	300
1	1745	206.842110411793	301
1	1745	206.842110411793	302
1	1759	208.542626856037	303
1	1759	208.542626856037	304
1	1759	208.542626856037	305
1	1765	210.525043927892	306
1	1765	210.525043927892	307
1	1765	210.525043927892	308
1	1783	212.045137589462	309
1	1783	212.045137589462	310
1	1783	212.045137589462	311
1	1801	213.098386534917	312
1	1801	213.098386534917	313
1	1801	213.098386534917	314
1	1821	216.713838995562	315
1	1821	216.713838995562	316
1	1821	216.713838995562	317
1	1839	217.893530238704	318
1	1839	217.893530238704	319
1	1839	217.893530238704	320
1	1857	219.45208556454	321
1	1857	219.45208556454	322
1	1857	219.45208556454	323
1	1877	223.336635769833	324
1	1877	223.336635769833	325
1	1877	223.336635769833	326
1	1895	225.332814141907	327
1	1895	225.332814141907	328
1	1895	225.332814141907	329
1	1913	226.731205202854	330
1	1913	226.731205202854	331
1	1913	226.731205202854	332
1	1927	227.946815344505	333
1	1927	227.946815344505	334
1	1927	227.946815344505	335
1	1941	229.423222340211	336
1	1941	229.423222340211	337
1	1941	229.423222340211	338
1	1959	231.328973540361	339
1	1959	231.328973540361	340
1	1959	231.328973540361	341
1	1979	234.552388541438	342
1	1979	234.552388541438	343
1	1979	234.552388541438	344
1	1999	237.46335823104	345
1	1999	237.46335823104	346
1	1999	237.46335823104	347
2	7	0.158381092426	0
2	7	0.158381092426	1
2	7	0.158381092426	2
2	29	1.769823834688	3
2	29	1.769823834688	4
2	29	1.769823834688	5
2	39	3.256694914928	6
2	39	3.256694914928	7
2	39	3.256694914928	8
2	59	6.175676215905	9
2	59	6.175676215905	10
2	59	6.175676215905	11
2	77	7.706384659183	12
2	77	7.706384659183	13
2	77	7.706384659183	14
2	96	8.847757594405	15
2	96	8.847757594405	16
2	96	8.847757594405	17
2	117	13.794604870921	18
2	117	13.794604870921	19
2	117	13.794604870921	20
2	141	17.74547506893	21
2	141	17.74547506893	22
2	141	17.74547506893	23
2	169	24.205713882653	24
2	169	24.205713882653	25
2	169	24.205713882653	26
2	183	25.881112255189	27
2	183	25.881112255189	28
2	183	25.881112255189	29
2	201	26.955546200443	30
2	201	26.955546200443	31
2	201	26.955546200443	32
2	219	28.123551349322	33
2	219	28.123551349322	34
2	219	28.123551349322	35
2	237	30.018144845143	36
2	237	30.018144845143	37
2	237	30.018144845143	38
2	256	31.696150237313	39
2	256	31.696150237313	40
2	256	31.696150237313	41
2	277	33.326281731753	42
2	277	33.326281731753	43
2	277	33.326281731753	44
2	291	34.394170221427	45
2	291	34.394170221427	46
2	291	34.394170221427	47
2	311	37.429992632788	48
2	311	37.429992632788	49
2	311	37.429992632788	50
2	340	40.93879789128	51
2	340	40.93879789128	52
2	340	40.93879789128	53
2	358	42.700050322769	54
2	358	42.700050322769	55
2	358	42.700050322769	56
2	374	45.549610294896	57
2	374	45.549610294896	58
2	374	45.549610294896	59
2	391	47.540993142123	60
2	391	47.540993142123	61
2	391	47.540993142123	62
2	405	48.771998972893	63
2	405	48.771998972893	64
2	405	48.771998972893	65
2	424	50.259991377626	66
2	424	50.259991377626	67
2	424	50.259991377626	68
2	449	51.883453329173	69
2	449	51.883453329173	70
2	449	51.883453329173	71
2	461	54.977814215293	72
2	461	54.977814215293	73
2	461	54.977814215293	74
2	479	56.78044795839	75
2	479	56.78044795839	76
2	479	56.78044795839	77
2	517	61.051424324222	78
2	517	61.051424324222	79
2	517	61.051424324222	80
2	531	65.528879448137	81
2	531	65.528879448137	82
2	531	65.528879448137	83
2	554	67.1134129213	84
2	554	67.1134129213	85
2	554	67.1134129213	86
2	568	68.694028538815	87
2	568	68.694028538815	88
2	568	68.694028538815	89
2	593	70.582893439229	90
2	593	70.582893439229	91
2	593	70.582893439229	92
2	603	71.821236505093	93
2	603	71.821236505093	94
2	603	71.821236505093	95
2	621	73.146967029857	96
2	621	73.146967029857	97
2	621	73.146967029857	98
2	652	78.460368027745	99
2	652	78.460368027745	100
2	652	78.460368027745	101
2	671	81.010349230208	102
2	671	81.010349230208	103
2	671	81.010349230208	104
2	685	82.666960542081	105
2	685	82.666960542081	106
2	685	82.666960542081	107
2	704	84.564662505687	108
2	704	84.564662505687	109
2	704	84.564662505687	110
2	727	87.330163083128	111
2	727	87.330163083128	112
2	727	87.330163083128	113
2	749	88.461353358998	114
2	749	88.461353358998	115
2	749	88.461353358998	116
2	768	89.964038565559	117
2	768	89.964038565559	118
2	768	89.964038565559	119
2	782	91.418991519029	120
2	782	91.418991519029	121
2	782	91.418991519029	122
2	795	92.499332255493	123
2	795	92.499332255493	124
2	795	92.499332255493	125
2	813	93.806748426949	126
2	813	93.806748426949	127
2	813	93.806748426949	128
2	831	94.928156855843	129
2	831	94.928156855843	130
2	831	94.928156855843	131
2	845	96.42483163984	132
2	845	96.42483163984	133
2	845	96.42483163984	134
2	867	100.545441460401	135
2	867	100.545441460401	136
2	867	100.545441460401	137
2	885	102.252115963656	138
2	885	102.252115963656	139
2	885	102.252115963656	140
2	903	103.689584157946	141
2	903	103.689584157946	142
2	903	103.689584157946	143
2	913	105.384037394956	144
2	913	105.384037394956	145
2	913	105.384037394956	146
2	932	106.868096744651	147
2	932	106.868096744651	148
2	932	106.868096744651	149
2	949	108.196983959809	150
2	949	108.196983959809	151
2	949	108.196983959809	152
2	963	109.390655594169	153
2	963	109.390655594169	154
2	963	109.390655594169	155
2	985	111.100409077255	156
2	985	111.100409077255	157
2	985	111.100409077255	158
2	999	112.160982211223	159
2	999	112.160982211223	160
2	999	112.160982211223	161
2	1018	114.134837359679	162
2	1018	114.134837359679	163
2	1018	114.134837359679	164
2	1036	116.127817975861	165
2	1036	116.127817975861	166
2	1036	116.127817975861	167
2	1055	119.339740833182	168
2	1055	119.339740833182	169
2	1055	119.339740833182	170
2	1081	124.491686314385	171
2	1081	124.491686314385	172
2	1081	124.491686314385	173
2	1097	127.482613755786	174
2	1097	127.482613755786	175
2	1097	127.482613755786	176
2	1119	132.425091673209	177
2	1119	132.425091673209	178
2	1119	132.425091673209	179
2	1141	134.264761170397	180
2	1141	134.264761170397	181
2	1141	134.264761170397	182
2	1151	135.781234039054	183
2	1151	135.781234039054	184
2	1151	135.781234039054	185
2	1169	137.105806710913	186
2	1169	137.105806710913	187
2	1169	137.105806710913	188
2	1187	138.434480614963	189
2	1187	138.434480614963	190
2	1187	138.434480614963	191
2	1213	143.504044922796	192
2	1213	143.504044922796	193
2	1213	143.504044922796	194
2	1235	148.386237148258	195
2	1235	148.386237148258	196
2	1235	148.386237148258	197
2	1257	150.061251764835	198
2	1257	150.061251764835	199
2	1257	150.061251764835	200
2	1273	152.344998491063	201
2	1273	152.344998491063	202
2	1273	152.344998491063	203
2	1287	153.46712122167	204
2	1287	153.46712122167	205
2	1287	153.46712122167	206
2	1309	154.528797402064	207
2	1309	154.528797402064	208
2	1309	154.528797402064	209
2	1323	155.630603913639	210
2	1323	155.630603913639	211
2	1323	155.630603913639	212
2	1345	157.125321515072	213
2	1345	157.125321515072	214
2	1345	157.125321515072	215
2	1360	158.970153012745	216
2	1360	158.970153012745	217
2	1360	158.970153012745	218
2	1377	160.318200965144	219
2	1377	160.318200965144	220
2	1377	160.318200965144	221
2	1396	161.426146453268	222
2	1396	161.426146453268	223
2	1396	161.426146453268	224
2	1423	169.161869927693	225
2	1423	169.161869927693	226
2	1423	169.161869927693	227
2	1445	170.38263437756	228
2	1445	170.38263437756	229
2	1445	170.38263437756	230
2	1460	171.689369041869	231
2	1460	171.689369041869	232
2	1460	171.689369041869	233
2	1483	174.395043070796	234
2	1483	174.395043070796	235
2	1483	174.395043070796	236
2	1497	175.50638270452	237
2	1497	175.50638270452	238
2	1497	175.50638270452	239
2	1523	177.17794515489	240
2	1523	177.17794515489	241
2	1523	177.17794515489	242
2	1533	178.889837025495	243
2	1533	178.889837025495	244
2	1533	178.889837025495	245
2	1557	182.251568116883	246
2	1557	182.251568116883	247
2	1557	182.251568116883	248
2	1567	183.978226391992	249
2	1567	183.978226391992	250
2	1567	183.978226391992	251
2	1585	185.9696957727	252
2	1585	185.9696957727	253
2	1585	185.9696957727	254
2	1603	187.840888998119	255
2	1603	187.840888998119	256
2	1603	187.840888998119	257
2	1622	189.059212331014	258
2	1622	189.059212331014	259
2	1622	189.059212331014	260
2	1639	193.053730037442	261
2	1639	193.053730037442	262
2	1639	193.053730037442	263
2	1655	195.935283466572	264
2	1655	195.935283466572	265
2	1655	195.935283466572	266
2	1673	197.267571656402	267
2	1673	197.267571656402	268
2	1673	197.267571656402	269
2	1691	198.842190289558	270
2	1691	198.842190289558	271
2	1691	198.842190289558	272
2	1711	202.395158358135	273
2	1711	202.395158358135	274
2	1711	202.395158358135	275
2	1731	205.152235231813	276
2	1731	205.152235231813	277
2	1731	205.152235231813	278
2	1769	210.546581565526	279
2	1769	210.546581565526	280
2	1769	210.546581565526	281
2	1791	212.079555431371	282
2	1791	212.079555431371	283
2	1791	212.079555431371	284
2	1813	213.152918792426	285
2	1813	213.152918792426	286
2	1813	213.152918792426	287
2	1829	216.781563832535	288
2	1829	216.781563832535	289
2	1829	216.781563832535	290
2	1843	217.910165455553	291
2	1843	217.910165455553	292
2	1843	217.910165455553	293
2	1861	219.472425622767	294
2	1861	219.472425622767	295
2	1861	219.472425622767	296
2	1882	223.349215222126	297
2	1882	223.349215222126	298
2	1882	223.349215222126	299
2	1899	225.345268836728	300
2	1899	225.345268836728	301
2	1899	225.345268836728	302
2	1918	226.763227887308	303
2	1918	226.763227887308	304
2	1918	226.763227887308	305
2	1931	227.990364988299	306
2	1931	227.990364988299	307
2	1931	227.990364988299	308
2	1945	229.440280860162	309
2	1945	229.440280860162	310
2	1945	229.440280860162	311
2	1963	231.340439498287	312
2	1963	231.340439498287	313
2	1963	231.340439498287	314
2	1983	234.563017886257	315
2	1983	234.563017886257	316
2	1983	234.563017886257	317
2	2004	237.479817550576	318
2	2004	237.479817550576	319
2	2004	237.479817550576	320
3	8	0.160742618959	0
3	8	0.160742618959	1
3	8	0.160742618959	2
3	25	1.752235622359	3
3	25	1.752235622359	4
3	25	1.752235622359	5
3	44	3.282747310499	6
3	44	3.282747310499	7
3	44	3.282747310499	8
3	67	6.211469602658	9
3	67	6.211469602658	10
3	67	6.211469602658	11
3	82	7.723712419849	12
3	82	7.723712419849	13
3	82	7.723712419849	14
3	95	8.845348261646	15
3	95	8.845348261646	16
3	95	8.845348261646	17
3	118	13.798081516646	18
3	118	13.798081516646	19
3	118	13.798081516646	20
3	145	17.776642017562	21
3	145	17.776642017562	22
3	145	17.776642017562	23
3	165	24.192629734252	24
3	165	24.192629734252	25
3	165	24.192629734252	26
3	188	25.90371159329	27
3	188	25.90371159329	28
3	188	25.90371159329	29
3	205	26.978833779181	30
3	205	26.978833779181	31
3	205	26.978833779181	32
3	224	28.148147925616	33
3	224	28.148147925616	34
3	224	28.148147925616	35
3	238	30.027699320307	36
3	238	30.027699320307	37
3	238	30.027699320307	38
3	255	31.688946307485	39
3	255	31.688946307485	40
3	255	31.688946307485	41
3	273	33.310635626742	42
3	273	33.310635626742	43
3	273	33.310635626742	44
3	295	34.405284289944	45
3	295	34.405284289944	46
3	295	34.405284289944	47
3	312	37.432364730641	48
3	312	37.432364730641	49
3	312	37.432364730641	50
3	325	38.937491573737	51
3	325	38.937491573737	52
3	325	38.937491573737	53
3	339	40.933319530032	54
3	339	40.933319530032	55
3	339	40.933319530032	56
3	353	42.677964705158	57
3	353	42.677964705158	58
3	353	42.677964705158	59
3	373	45.548367305673	60
3	373	45.548367305673	61
3	373	45.548367305673	62
3	392	47.54515546018	63
3	392	47.54515546018	64
3	392	47.54515546018	65
3	406	48.774763458443	66
3	406	48.774763458443	67
3	406	48.774763458443	68
3	423	50.25155724351	69
3	423	50.25155724351	70
3	423	50.25155724351	71
3	441	51.857456134755	72
3	441	51.857456134755	73
3	441	51.857456134755	74
3	462	54.978344494684	75
3	462	54.978344494684	76
3	462	54.978344494684	77
3	483	56.791698284289	78
3	483	56.791698284289	79
3	483	56.791698284289	80
3	503	59.900502397428	81
3	503	59.900502397428	82
3	503	59.900502397428	83
3	535	65.54094863647	84
3	535	65.54094863647	85
3	535	65.54094863647	86
3	549	67.086226685673	87
3	549	67.086226685673	88
3	549	67.086226685673	89
3	567	68.689896433143	90
3	567	68.689896433143	91
3	567	68.689896433143	92
3	585	70.554703302412	93
3	585	70.554703302412	94
3	585	70.554703302412	95
3	607	71.832058973813	96
3	607	71.832058973813	97
3	607	71.832058973813	98
3	625	73.16009973964	99
3	625	73.16009973964	100
3	625	73.16009973964	101
3	639	75.128788557908	102
3	639	75.128788557908	103
3	639	75.128788557908	104
3	651	78.454961258421	105
3	651	78.454961258421	106
3	651	78.454961258421	107
3	675	81.022370107342	108
3	675	81.022370107342	109
3	675	81.022370107342	110
3	686	82.672663354424	111
3	686	82.672663354424	112
3	686	82.672663354424	113
3	703	84.559394281966	114
3	703	84.559394281966	115
3	703	84.559394281966	116
3	735	87.387242765854	117
3	735	87.387242765854	118
3	735	87.387242765854	119
3	745	88.449603408516	120
3	745	88.449603408516	121
3	745	88.449603408516	122
3	763	89.936847872441	123
3	763	89.936847872441	124
3	763	89.936847872441	125
3	781	91.414122139831	126
3	781	91.414122139831	127
3	781	91.414122139831	128
3	796	92.50357917076	129
3	796	92.50357917076	130
3	796	92.50357917076	131
3	827	94.916752098673	132
3	827	94.916752098673	133
3	827	94.916752098673	134
3	850	96.445013815628	135
3	850	96.445013815628	136
3	850	96.445013815628	137
3	868	100.549119610281	138
3	868	100.549119610281	139
3	868	100.549119610281	140
3	893	102.2775432324	141
3	893	102.2775432324	142
3	893	102.2775432324	143
3	917	105.395140468565	144
3	917	105.395140468565	145
3	917	105.395140468565	146
3	931	106.864016892725	147
3	931	106.864016892725	148
3	931	106.864016892725	149
3	953	108.21125949204	150
3	953	108.21125949204	151
3	953	108.21125949204	152
3	964	109.392466997321	153
3	964	109.392466997321	154
3	964	109.392466997321	155
3	981	111.087981622881	156
3	981	111.087981622881	157
3	981	111.087981622881	158
3	1000	112.164315546889	159
3	1000	112.164315546889	160
3	1000	112.164315546889	161
3	1017	114.131854513487	162
3	1017	114.131854513487	163
3	1017	114.131854513487	164
3	1035	116.120721288114	165
3	1035	116.120721288114	166
3	1035	116.120721288114	167
3	1059	119.364328044241	168
3	1059	119.364328044241	169
3	1059	119.364328044241	170
3	1077	124.47310034102	171
3	1077	124.47310034102	172
3	1077	124.47310034102	173
3	1098	127.48567919191	174
3	1098	127.48567919191	175
3	1098	127.48567919191	176
3	1123	132.437246880063	177
3	1123	132.437246880063	178
3	1123	132.437246880063	179
3	1137	134.253527075682	180
3	1137	134.253527075682	181
3	1137	134.253527075682	182
3	1152	135.78305209898	183
3	1152	135.78305209898	184
3	1152	135.78305209898	185
3	1170	137.114887035899	186
3	1170	137.114887035899	187
3	1170	137.114887035899	188
3	1188	138.438377839939	189
3	1188	138.438377839939	190
3	1188	138.438377839939	191
3	1214	143.504662161363	192
3	1214	143.504662161363	193
3	1214	143.504662161363	194
3	1236	148.391938413181	195
3	1236	148.391938413181	196
3	1236	148.391938413181	197
3	1253	150.050395556894	198
3	1253	150.050395556894	199
3	1253	150.050395556894	200
3	1269	152.333866757739	201
3	1269	152.333866757739	202
3	1269	152.333866757739	203
3	1288	153.467440407586	204
3	1288	153.467440407586	205
3	1288	153.467440407586	206
3	1305	154.518194221826	207
3	1305	154.518194221826	208
3	1305	154.518194221826	209
3	1327	155.643768187551	210
3	1327	155.643768187551	211
3	1327	155.643768187551	212
3	1341	157.114595354491	213
3	1341	157.114595354491	214
3	1341	157.114595354491	215
3	1359	158.970147330545	216
3	1359	158.970147330545	217
3	1359	158.970147330545	218
3	1385	160.348387602743	219
3	1385	160.348387602743	220
3	1385	160.348387602743	221
3	1395	161.419038314117	222
3	1395	161.419038314117	223
3	1395	161.419038314117	224
3	1428	169.177965519501	225
3	1428	169.177965519501	226
3	1428	169.177965519501	227
3	1441	170.370336255063	228
3	1441	170.370336255063	229
3	1441	170.370336255063	230
3	1459	171.686950418242	231
3	1459	171.686950418242	232
3	1459	171.686950418242	233
3	1479	174.385004392564	234
3	1479	174.385004392564	235
3	1479	174.385004392564	236
3	1502	175.533226650912	237
3	1502	175.533226650912	238
3	1502	175.533226650912	239
3	1515	177.148370970968	240
3	1515	177.148370970968	241
3	1515	177.148370970968	242
3	1537	178.933256070045	243
3	1537	178.933256070045	244
3	1537	178.933256070045	245
3	1553	182.233900863062	246
3	1553	182.233900863062	247
3	1553	182.233900863062	248
3	1571	183.98992696288	249
3	1571	183.98992696288	250
3	1571	183.98992696288	251
3	1593	186.016944516441	252
3	1593	186.016944516441	253
3	1593	186.016944516441	254
3	1607	187.855627613909	255
3	1607	187.855627613909	256
3	1607	187.855627613909	257
3	1621	189.053915278973	258
3	1621	189.053915278973	259
3	1621	189.053915278973	260
3	1640	193.054526692949	261
3	1640	193.054526692949	262
3	1640	193.054526692949	263
3	1656	195.938586449851	264
3	1656	195.938586449851	265
3	1656	195.938586449851	266
3	1677	197.281037326493	267
3	1677	197.281037326493	268
3	1677	197.281037326493	269
3	1692	198.850369163726	270
3	1692	198.850369163726	271
3	1692	198.850369163726	272
3	1716	202.411765509069	273
3	1716	202.411765509069	274
3	1716	202.411765509069	275
3	1735	205.183657715299	276
3	1735	205.183657715299	277
3	1735	205.183657715299	278
3	1749	206.855916320786	279
3	1749	206.855916320786	280
3	1749	206.855916320786	281
3	1774	210.571316343293	282
3	1774	210.571316343293	283
3	1774	210.571316343293	284
3	1787	212.063527322291	285
3	1787	212.063527322291	286
3	1787	212.063527322291	287
3	1805	213.110762190346	288
3	1805	213.110762190346	289
3	1805	213.110762190346	290
3	1825	216.76320505686	291
3	1825	216.76320505686	292
3	1825	216.76320505686	293
3	1844	217.910814378458	294
3	1844	217.910814378458	295
3	1844	217.910814378458	296
3	1866	219.486476355059	297
3	1866	219.486476355059	298
3	1866	219.486476355059	299
3	1881	223.348148464283	300
3	1881	223.348148464283	301
3	1881	223.348148464283	302
3	1904	225.359698920187	303
3	1904	225.359698920187	304
3	1904	225.359698920187	305
3	1917	226.760419742214	306
3	1917	226.760419742214	307
3	1917	226.760419742214	308
3	1935	228.013451939896	309
3	1935	228.013451939896	310
3	1935	228.013451939896	311
3	1950	229.461217567896	312
3	1950	229.461217567896	313
3	1950	229.461217567896	314
3	1967	231.358630543721	315
3	1967	231.358630543721	316
3	1967	231.358630543721	317
3	1987	234.580087567898	318
3	1987	234.580087567898	319
3	1987	234.580087567898	320
3	2003	237.473459377796	321
3	2003	237.473459377796	322
3	2003	237.473459377796	323
4	15	0.174136284395	0
4	15	0.174136284395	1
4	15	0.174136284395	2
4	43	3.272884209524	3
4	43	3.272884209524	4
4	43	3.272884209524	5
4	63	6.199029117751	6
4	63	6.199029117751	7
4	63	6.199029117751	8
4	81	7.72212998325	9
4	81	7.72212998325	10
4	81	7.72212998325	11
4	103	8.859279387219	12
4	103	8.859279387219	13
4	103	8.859279387219	14
4	122	13.805774425019	15
4	122	13.805774425019	16
4	122	13.805774425019	17
4	149	17.800084470284	18
4	149	17.800084470284	19
4	149	17.800084470284	20
4	170	24.210990709572	21
4	170	24.210990709572	22
4	170	24.210990709572	23
4	187	25.894528796859	24
4	187	25.894528796859	25
4	187	25.894528796859	26
4	209	26.991693988906	27
4	209	26.991693988906	28
4	209	26.991693988906	29
4	223	28.145573734994	30
4	223	28.145573734994	31
4	223	28.145573734994	32
4	242	30.035102839752	33
4	242	30.035102839752	34
4	242	30.035102839752	35
4	263	31.727224713363	36
4	263	31.727224713363	37
4	263	31.727224713363	38
4	278	33.331194122829	39
4	278	33.331194122829	40
4	278	33.331194122829	41
4	299	34.416696296676	42
4	299	34.416696296676	43
4	299	34.416696296676	44
4	329	38.984591179656	45
4	329	38.984591179656	46
4	329	38.984591179656	47
4	357	42.697044345431	48
4	357	42.697044345431	49
4	357	42.697044345431	50
4	381	45.591746649012	51
4	381	45.591746649012	52
4	381	45.591746649012	53
4	410	48.782695149604	54
4	410	48.782695149604	55
4	410	48.782695149604	56
4	431	50.291327010501	57
4	431	50.291327010501	58
4	431	50.291327010501	59
4	445	51.870651881304	60
4	445	51.870651881304	61
4	445	51.870651881304	62
4	466	54.988074192745	63
4	466	54.988074192745	64
4	466	54.988074192745	65
4	484	56.797733196817	66
4	484	56.797733196817	67
4	484	56.797733196817	68
4	507	59.924312028385	69
4	507	59.924312028385	70
4	507	59.924312028385	71
4	539	65.557596713966	72
4	539	65.557596713966	73
4	539	65.557596713966	74
4	553	67.108799055629	75
4	553	67.108799055629	76
4	553	67.108799055629	77
4	575	68.718035295785	78
4	575	68.718035295785	79
4	575	68.718035295785	80
4	589	70.571863755592	81
4	589	70.571863755592	82
4	589	70.571863755592	83
4	608	71.83646618163	84
4	608	71.83646618163	85
4	608	71.83646618163	86
4	629	73.181248613859	87
4	629	73.181248613859	88
4	629	73.181248613859	89
4	659	78.484109680997	90
4	659	78.484109680997	91
4	659	78.484109680997	92
4	690	82.67776133064	93
4	690	82.67776133064	94
4	690	82.67776133064	95
4	708	84.57113623357	96
4	708	84.57113623357	97
4	708	84.57113623357	98
4	731	87.356276403119	99
4	731	87.356276403119	100
4	731	87.356276403119	101
4	750	88.462348043736	102
4	750	88.462348043736	103
4	750	88.462348043736	104
4	767	89.955422223467	105
4	767	89.955422223467	106
4	767	89.955422223467	107
4	803	92.514461525411	108
4	803	92.514461525411	109
4	803	92.514461525411	110
4	817	93.835043848508	111
4	817	93.835043848508	112
4	817	93.835043848508	113
4	832	94.92967155939	114
4	832	94.92967155939	115
4	832	94.92967155939	116
4	849	96.441571074282	117
4	849	96.441571074282	118
4	849	96.441571074282	119
4	875	100.563531257352	120
4	875	100.563531257352	121
4	875	100.563531257352	122
4	889	102.266401039698	123
4	889	102.266401039698	124
4	889	102.266401039698	125
4	921	105.408321014017	126
4	921	105.408321014017	127
4	921	105.408321014017	128
4	939	106.895729151539	129
4	939	106.895729151539	130
4	939	106.895729151539	131
4	968	109.402063045723	132
4	968	109.402063045723	133
4	968	109.402063045723	134
4	989	111.147603160364	135
4	989	111.147603160364	136
4	989	111.147603160364	137
4	1007	112.178425993837	138
4	1007	112.178425993837	139
4	1007	112.178425993837	140
4	1025	114.149728443785	141
4	1025	114.149728443785	142
4	1025	114.149728443785	143
4	1040	116.133905218275	144
4	1040	116.133905218275	145
4	1040	116.133905218275	146
4	1063	119.378522837476	147
4	1063	119.378522837476	148
4	1063	119.378522837476	149
4	1085	124.537471331643	150
4	1085	124.537471331643	151
4	1085	124.537471331643	152
4	1102	127.493636773596	153
4	1102	127.493636773596	154
4	1102	127.493636773596	155
4	1127	132.474506260055	156
4	1127	132.474506260055	157
4	1127	132.474506260055	158
4	1159	135.79714706691	159
4	1159	135.79714706691	160
4	1159	135.79714706691	161
4	1174	137.116424872399	162
4	1174	137.116424872399	163
4	1174	137.116424872399	164
4	1195	138.454738874483	165
4	1195	138.454738874483	166
4	1195	138.454738874483	167
4	1221	143.518632435822	168
4	1221	143.518632435822	169
4	1221	143.518632435822	170
4	1240	148.400574142962	171
4	1240	148.400574142962	172
4	1240	148.400574142962	173
4	1274	152.345114688662	174
4	1274	152.345114688662	175
4	1274	152.345114688662	176
4	1295	153.488670967006	177
4	1295	153.488670967006	178
4	1295	153.488670967006	179
4	1313	154.547825454722	180
4	1313	154.547825454722	181
4	1313	154.547825454722	182
4	1328	155.64577558291	183
4	1328	155.64577558291	184
4	1328	155.64577558291	185
4	1346	157.134128213803	186
4	1346	157.134128213803	187
4	1346	157.134128213803	188
4	1367	158.992662420115	189
4	1367	158.992662420115	190
4	1367	158.992662420115	191
4	1381	160.328497212667	192
4	1381	160.328497212667	193
4	1381	160.328497212667	194
4	1403	161.441786828642	195
4	1403	161.441786828642	196
4	1403	161.441786828642	197
4	1427	169.173534829632	198
4	1427	169.173534829632	199
4	1427	169.173534829632	200
4	1449	170.413121757496	201
4	1449	170.413121757496	202
4	1449	170.413121757496	203
4	1467	171.69988105322	204
4	1467	171.69988105322	205
4	1467	171.69988105322	206
4	1487	174.430316806569	207
4	1487	174.430316806569	208
4	1487	174.430316806569	209
4	1501	175.524356689278	210
4	1501	175.524356689278	211
4	1501	175.524356689278	212
4	1519	177.162201651639	213
4	1519	177.162201651639	214
4	1519	177.162201651639	215
4	1541	178.954516598022	216
4	1541	178.954516598022	217
4	1541	178.954516598022	218
4	1572	183.991853303354	219
4	1572	183.991853303354	220
4	1572	183.991853303354	221
4	1589	186.006661121239	222
4	1589	186.006661121239	223
4	1589	186.006661121239	224
4	1611	187.867462943326	225
4	1611	187.867462943326	226
4	1611	187.867462943326	227
4	1663	195.954590202138	228
4	1663	195.954590202138	229
4	1663	195.954590202138	230
4	1678	197.290126163117	231
4	1678	197.290126163117	232
4	1678	197.290126163117	233
4	1696	198.856866530331	234
4	1696	198.856866530331	235
4	1696	198.856866530331	236
4	1715	202.406670262399	237
4	1715	202.406670262399	238
4	1715	202.406670262399	239
4	1739	205.200428332423	240
4	1739	205.200428332423	241
4	1739	205.200428332423	242
4	1753	206.871591646624	243
4	1753	206.871591646624	244
4	1753	206.871591646624	245
4	1773	210.56989560903	246
4	1773	210.56989560903	247
4	1773	210.56989560903	248
4	1795	212.103959347421	249
4	1795	212.103959347421	250
4	1795	212.103959347421	251
4	1809	213.141639092977	252
4	1809	213.141639092977	253
4	1809	213.141639092977	254
4	1833	216.793117213265	255
4	1833	216.793117213265	256
4	1833	216.793117213265	257
4	1851	217.938351018631	258
4	1851	217.938351018631	259
4	1851	217.938351018631	260
4	1865	219.483476261096	261
4	1865	219.483476261096	262
4	1865	219.483476261096	263
4	1889	223.397165545463	264
4	1889	223.397165545463	265
4	1889	223.397165545463	266
4	1903	225.357040480837	267
4	1903	225.357040480837	268
4	1903	225.357040480837	269
4	1949	229.452478097617	270
4	1949	229.452478097617	271
4	1949	229.452478097617	272
4	1971	231.375988306184	273
4	1971	231.375988306184	274
4	1971	231.375988306184	275
4	1988	234.5863683171	276
4	1988	234.5863683171	277
4	1988	234.5863683171	278
4	2011	237.491351099454	279
4	2011	237.491351099454	280
4	2011	237.491351099454	281
5	18	0.184136284395	0
5	47	3.282884209524	1
5	176	24.220990709572	2
5	191	25.904528796859	3
5	212	27.001693988906	4
5	227	28.155573734994	5
5	248	30.045102839752	6
5	284	33.341194122829	7
5	302	34.426696296676	8
5	361	42.707044345431	9
5	416	48.792695149604	10
5	434	50.301327010501	11
5	448	51.880651881304	12
5	472	54.998074192745	13
5	490	56.807733196817	14
5	542	65.567596713966	15
5	557	67.118799055629	16
5	578	68.728035295785	17
5	592	70.581863755592	18
5	632	73.191248613859	19
5	662	78.494109680997	20
5	696	82.68776133064	21
5	756	88.472348043736	22
5	771	89.965422223467	23
5	806	92.524461525411	24
5	838	94.93967155939	25
5	853	96.451571074282	26
5	878	100.573531257352	27
5	924	105.418321014017	28
5	942	106.905729151539	29
5	974	109.412063045723	30
5	992	111.157603160364	31
5	1010	112.188425993837	32
5	1028	114.159728443785	33
5	1046	116.143905218275	34
5	1088	124.547471331643	35
5	1108	127.503636773596	36
5	1130	132.484506260055	37
5	1162	135.80714706691	38
5	1180	137.126424872399	39
5	1198	138.464738874483	40
5	1224	143.528632435822	41
5	1246	148.410574142962	42
5	1280	152.355114688662	43
5	1316	154.557825454722	44
5	1334	155.65577558291	45
5	1352	157.144128213803	46
5	1370	159.002662420115	47
5	1384	160.338497212667	48
5	1431	169.183534829632	49
5	1452	170.423121757496	50
5	1470	171.70988105322	51
5	1505	175.534356689278	52
5	1522	177.172201651639	53
5	1592	186.016661121239	54
5	1614	187.877462943326	55
5	1666	195.964590202138	56
5	1702	198.866866530331	57
5	1719	202.416670262399	58
5	1756	206.881591646624	59
5	1777	210.57989560903	60
5	1798	212.113959347421	61
5	1812	213.151639092977	62
5	1836	216.803117213265	63
5	1869	219.493476261096	64
5	1892	223.407165545463	65
5	1907	225.367040480837	66
5	1974	231.385988306184	67
5	1994	234.5963683171	68

