version 2
run General-3-20231008-06:53:07-16467
attr configname General
attr datetime 20231008-06:53:07
attr experiment General
attr inifile omnetpp.ini
attr iterationvars ""
attr iterationvarsf ""
attr measurement ""
attr network Network2
attr processid 16467
attr repetition 3
attr replication #3
attr resultdir results
attr runnumber 3
attr seedset 3
param Network2.node[*].transmissionTime "uniform(1s, 2s)"
param Network2.node[*].delayTime "uniform(0.01s, 0.2s)"
param Network2.node[*].processingTime exponential(0.01s)
param Network2.node[*].lossProbability 0.0

vector 0 Network2.node[0] txVector ETV
vector 1 Network2.node[1] txVector ETV
vector 2 Network2.node[2] txVector ETV
vector 3 Network2.node[4] txVector ETV
vector 4 Network2.node[3] txVector ETV
vector 5 Network2.node[6] txVector ETV
vector 6 Network2.node[5] rxVector ETV
0	1	0.114651601831	0
0	24	1.185376482154	1
0	47	2.834520533751	2
0	70	4.289128298708	3
0	93	5.381345310085	4
0	116	7.252417360735	5
0	139	8.943510282854	6
0	162	9.964736023056	7
0	185	11.518013754463	8
0	208	12.867938976338	9
0	231	14.718910398496	10
0	254	15.839527766056	11
0	277	17.275048318155	12
0	300	18.615054243313	13
0	323	19.928873355336	14
0	346	21.034795080147	15
0	369	22.46561009886	16
0	392	23.875701433581	17
0	415	25.354616879553	18
0	438	27.333694134441	19
0	461	28.364005492137	20
0	484	30.140767526415	21
0	507	31.182798380333	22
0	530	32.800143006559	23
0	553	33.91358709249	24
0	576	35.702631348812	25
0	599	37.208716613076	26
0	622	38.8375587648	27
0	645	39.927053760107	28
0	668	41.809487902395	29
0	691	43.112307736719	30
0	714	44.713106318679	31
0	737	45.719800537987	32
0	760	46.780614196159	33
0	783	47.933077456964	34
0	806	49.05467476237	35
0	829	50.784648509998	36
0	852	51.961251949262	37
0	875	53.315416443231	38
0	898	54.93265760045	39
0	921	56.666586584481	40
0	944	57.978135920898	41
0	967	59.19165618259	42
0	990	60.294132949621	43
0	1013	61.822627725382	44
0	1036	63.661579093733	45
0	1059	64.728149081883	46
0	1082	66.009398065112	47
0	1105	67.293638250395	48
0	1128	68.782349854778	49
0	1151	70.345025914791	50
0	1174	72.125822233106	51
0	1197	73.531924717431	52
0	1220	74.741057678894	53
0	1243	76.225512827351	54
0	1266	77.734627064853	55
0	1289	78.880648309668	56
0	1312	79.907790884911	57
0	1335	81.659673974453	58
0	1358	83.499403574108	59
0	1381	85.137862004409	60
0	1404	86.449541834252	61
0	1427	88.103824860951	62
0	1450	89.250881126918	63
0	1473	91.021883075893	64
0	1496	92.959675903734	65
0	1519	94.209677746589	66
0	1542	95.768718719552	67
0	1565	97.276150769158	68
0	1588	98.459144293633	69
0	1611	100.158523796196	70
0	1634	102.03151855974	71
0	1657	103.631770615536	72
0	1680	105.22596632347	73
0	1703	107.08259484435	74
0	1726	108.388990570396	75
0	1749	110.370772544831	76
0	1772	111.552494172776	77
0	1795	113.132150849631	78
0	1818	114.716286312859	79
0	1841	116.108608417283	80
0	1864	117.402855740697	81
0	1887	119.067425937229	82
0	1910	120.586647374393	83
0	1933	122.379592326074	84
0	1956	123.905147083406	85
0	1979	125.186450174381	86
0	2002	126.931448587985	87
0	2025	128.26687104844	88
0	2048	129.399565231357	89
0	2071	130.744124588393	90
0	2094	132.033966646366	91
0	2117	134.02106480773	92
0	2140	135.079705075197	93
0	2163	136.456171316629	94
0	2186	138.379243400715	95
0	2209	139.989504905952	96
0	2232	141.153449001092	97
0	2255	143.14087143943	98
0	2278	144.283413853797	99
0	2301	145.657184122664	100
0	2324	147.406306186992	101
0	2347	148.516786683419	102
0	2370	150.243834991309	103
0	2393	151.880091353853	104
0	2416	153.873354163787	105
0	2439	155.571959587115	106
0	2462	157.096284757204	107
0	2485	158.839390781777	108
0	2508	160.6368809995	109
0	2531	162.560963708976	110
0	2554	163.742572533268	111
0	2577	164.994446004111	112
0	2600	166.329349284827	113
0	2623	167.582383398733	114
0	2646	168.584342305849	115
0	2669	169.968015075263	116
0	2692	171.596129126216	117
0	2715	173.409236791844	118
0	2738	174.560914368203	119
0	2761	176.37038420194	120
0	2784	178.24554742274	121
0	2807	179.470330053308	122
0	2830	180.655292023272	123
0	2853	182.545285810084	124
0	2876	184.428838858913	125
0	2899	185.96804005962	126
0	2922	187.670804081551	127
0	2945	189.125315606893	128
0	2968	190.148224263518	129
0	2991	191.331178481989	130
0	3014	192.690770730209	131
0	3037	193.842102085539	132
0	3060	194.877481024545	133
0	3083	196.049782436407	134
0	3106	197.354831736368	135
0	3129	198.585776408735	136
0	3152	200.578486631225	137
0	3175	201.960661884464	138
0	3198	203.697243847485	139
0	3221	205.128477789761	140
0	3244	207.039137210065	141
0	3267	208.865295546662	142
0	3290	210.641559843739	143
0	3313	211.935952476991	144
0	3336	213.864218358483	145
0	3359	215.355247183071	146
0	3382	216.588922269709	147
0	3405	218.428553270476	148
0	3428	220.209698034052	149
0	3451	221.652362846371	150
0	3474	223.365473954773	151
0	3497	224.843974971513	152
0	3520	226.054076507755	153
0	3543	227.717639379038	154
0	3566	229.623912029734	155
0	3589	230.648289671002	156
0	3612	231.946021270772	157
0	3635	233.107457194544	158
0	3658	234.799122257691	159
0	3681	236.667566356316	160
0	3704	238.345658168264	161
1	3	0.14297423212	0
1	3	0.14297423212	1
1	3	0.14297423212	2
1	3	0.14297423212	3
1	26	1.198640534919	4
1	26	1.198640534919	5
1	26	1.198640534919	6
1	26	1.198640534919	7
1	49	2.85869488601	8
1	49	2.85869488601	9
1	49	2.85869488601	10
1	49	2.85869488601	11
1	72	4.309724452164	12
1	72	4.309724452164	13
1	72	4.309724452164	14
1	72	4.309724452164	15
1	95	5.40801745059	16
1	95	5.40801745059	17
1	95	5.40801745059	18
1	95	5.40801745059	19
1	118	7.274102787261	20
1	118	7.274102787261	21
1	118	7.274102787261	22
1	118	7.274102787261	23
1	141	8.960096693153	24
1	141	8.960096693153	25
1	141	8.960096693153	26
1	141	8.960096693153	27
1	164	9.976816292224	28
1	164	9.976816292224	29
1	164	9.976816292224	30
1	164	9.976816292224	31
1	187	11.542830301959	32
1	187	11.542830301959	33
1	187	11.542830301959	34
1	187	11.542830301959	35
1	210	12.885782708712	36
1	210	12.885782708712	37
1	210	12.885782708712	38
1	210	12.885782708712	39
1	233	14.729307354972	40
1	233	14.729307354972	41
1	233	14.729307354972	42
1	233	14.729307354972	43
1	256	15.850254897902	44
1	256	15.850254897902	45
1	256	15.850254897902	46
1	256	15.850254897902	47
1	279	17.296980295064	48
1	279	17.296980295064	49
1	279	17.296980295064	50
1	279	17.296980295064	51
1	302	18.630494323884	52
1	302	18.630494323884	53
1	302	18.630494323884	54
1	302	18.630494323884	55
1	325	19.942246338911	56
1	325	19.942246338911	57
1	325	19.942246338911	58
1	325	19.942246338911	59
1	348	21.0525483427	60
1	348	21.0525483427	61
1	348	21.0525483427	62
1	348	21.0525483427	63
1	371	22.477108756912	64
1	371	22.477108756912	65
1	371	22.477108756912	66
1	371	22.477108756912	67
1	394	23.886344466844	68
1	394	23.886344466844	69
1	394	23.886344466844	70
1	394	23.886344466844	71
1	417	25.368089141281	72
1	417	25.368089141281	73
1	417	25.368089141281	74
1	417	25.368089141281	75
1	440	27.349884706525	76
1	440	27.349884706525	77
1	440	27.349884706525	78
1	440	27.349884706525	79
1	463	28.389771457475	80
1	463	28.389771457475	81
1	463	28.389771457475	82
1	463	28.389771457475	83
1	486	30.156167786377	84
1	486	30.156167786377	85
1	486	30.156167786377	86
1	486	30.156167786377	87
1	509	31.244864930881	88
1	509	31.244864930881	89
1	509	31.244864930881	90
1	509	31.244864930881	91
1	532	32.817238972521	92
1	532	32.817238972521	93
1	532	32.817238972521	94
1	532	32.817238972521	95
1	555	33.924514583528	96
1	555	33.924514583528	97
1	555	33.924514583528	98
1	555	33.924514583528	99
1	578	35.72102238146	100
1	578	35.72102238146	101
1	578	35.72102238146	102
1	578	35.72102238146	103
1	601	37.227802433582	104
1	601	37.227802433582	105
1	601	37.227802433582	106
1	601	37.227802433582	107
1	624	38.853213788652	108
1	624	38.853213788652	109
1	624	38.853213788652	110
1	624	38.853213788652	111
1	647	39.946875618999	112
1	647	39.946875618999	113
1	647	39.946875618999	114
1	647	39.946875618999	115
1	670	41.832989971447	116
1	670	41.832989971447	117
1	670	41.832989971447	118
1	670	41.832989971447	119
1	693	43.122670831056	120
1	693	43.122670831056	121
1	693	43.122670831056	122
1	693	43.122670831056	123
1	716	44.728089887409	124
1	716	44.728089887409	125
1	716	44.728089887409	126
1	716	44.728089887409	127
1	739	45.731653016001	128
1	739	45.731653016001	129
1	739	45.731653016001	130
1	739	45.731653016001	131
1	762	46.814180903297	132
1	762	46.814180903297	133
1	762	46.814180903297	134
1	762	46.814180903297	135
1	785	47.955527295144	136
1	785	47.955527295144	137
1	785	47.955527295144	138
1	785	47.955527295144	139
1	808	49.070193250911	140
1	808	49.070193250911	141
1	808	49.070193250911	142
1	808	49.070193250911	143
1	831	50.803727317086	144
1	831	50.803727317086	145
1	831	50.803727317086	146
1	831	50.803727317086	147
1	854	51.978303464258	148
1	854	51.978303464258	149
1	854	51.978303464258	150
1	854	51.978303464258	151
1	877	53.333311161894	152
1	877	53.333311161894	153
1	877	53.333311161894	154
1	877	53.333311161894	155
1	900	54.948260440341	156
1	900	54.948260440341	157
1	900	54.948260440341	158
1	900	54.948260440341	159
1	923	56.677209178155	160
1	923	56.677209178155	161
1	923	56.677209178155	162
1	923	56.677209178155	163
1	946	58.006603763445	164
1	946	58.006603763445	165
1	946	58.006603763445	166
1	946	58.006603763445	167
1	969	59.214253902112	168
1	969	59.214253902112	169
1	969	59.214253902112	170
1	969	59.214253902112	171
1	992	60.312088451922	172
1	992	60.312088451922	173
1	992	60.312088451922	174
1	992	60.312088451922	175
1	1015	61.84607387366	176
1	1015	61.84607387366	177
1	1015	61.84607387366	178
1	1015	61.84607387366	179
1	1038	63.673310759762	180
1	1038	63.673310759762	181
1	1038	63.673310759762	182
1	1038	63.673310759762	183
1	1061	64.740720231124	184
1	1061	64.740720231124	185
1	1061	64.740720231124	186
1	1061	64.740720231124	187
1	1084	66.025108812802	188
1	1084	66.025108812802	189
1	1084	66.025108812802	190
1	1084	66.025108812802	191
1	1107	67.332465228591	192
1	1107	67.332465228591	193
1	1107	67.332465228591	194
1	1107	67.332465228591	195
1	1130	68.803618770292	196
1	1130	68.803618770292	197
1	1130	68.803618770292	198
1	1130	68.803618770292	199
1	1153	70.364868935278	200
1	1153	70.364868935278	201
1	1153	70.364868935278	202
1	1153	70.364868935278	203
1	1176	72.147431364516	204
1	1176	72.147431364516	205
1	1176	72.147431364516	206
1	1176	72.147431364516	207
1	1199	73.542813066078	208
1	1199	73.542813066078	209
1	1199	73.542813066078	210
1	1199	73.542813066078	211
1	1222	74.753108688664	212
1	1222	74.753108688664	213
1	1222	74.753108688664	214
1	1222	74.753108688664	215
1	1245	76.237078827145	216
1	1245	76.237078827145	217
1	1245	76.237078827145	218
1	1245	76.237078827145	219
1	1268	77.750140746903	220
1	1268	77.750140746903	221
1	1268	77.750140746903	222
1	1268	77.750140746903	223
1	1291	78.898242800253	224
1	1291	78.898242800253	225
1	1291	78.898242800253	226
1	1291	78.898242800253	227
1	1314	79.921266025886	228
1	1314	79.921266025886	229
1	1314	79.921266025886	230
1	1314	79.921266025886	231
1	1337	81.670098300444	232
1	1337	81.670098300444	233
1	1337	81.670098300444	234
1	1337	81.670098300444	235
1	1360	83.51526819477	236
1	1360	83.51526819477	237
1	1360	83.51526819477	238
1	1360	83.51526819477	239
1	1383	85.164991839816	240
1	1383	85.164991839816	241
1	1383	85.164991839816	242
1	1383	85.164991839816	243
1	1406	86.465044640362	244
1	1406	86.465044640362	245
1	1406	86.465044640362	246
1	1406	86.465044640362	247
1	1429	88.117535807391	248
1	1429	88.117535807391	249
1	1429	88.117535807391	250
1	1429	88.117535807391	251
1	1452	89.27295630214	252
1	1452	89.27295630214	253
1	1452	89.27295630214	254
1	1452	89.27295630214	255
1	1475	91.039985429273	256
1	1475	91.039985429273	257
1	1475	91.039985429273	258
1	1475	91.039985429273	259
1	1498	92.98029341053	260
1	1498	92.98029341053	261
1	1498	92.98029341053	262
1	1498	92.98029341053	263
1	1521	94.228225038909	264
1	1521	94.228225038909	265
1	1521	94.228225038909	266
1	1521	94.228225038909	267
1	1544	95.791909721215	268
1	1544	95.791909721215	269
1	1544	95.791909721215	270
1	1544	95.791909721215	271
1	1567	97.295730943593	272
1	1567	97.295730943593	273
1	1567	97.295730943593	274
1	1567	97.295730943593	275
1	1590	98.474587761392	276
1	1590	98.474587761392	277
1	1590	98.474587761392	278
1	1590	98.474587761392	279
1	1613	100.173943804722	280
1	1613	100.173943804722	281
1	1613	100.173943804722	282
1	1613	100.173943804722	283
1	1636	102.062956102183	284
1	1636	102.062956102183	285
1	1636	102.062956102183	286
1	1636	102.062956102183	287
1	1659	103.647962918494	288
1	1659	103.647962918494	289
1	1659	103.647962918494	290
1	1659	103.647962918494	291
1	1682	105.250333032278	292
1	1682	105.250333032278	293
1	1682	105.250333032278	294
1	1682	105.250333032278	295
1	1705	107.096677665958	296
1	1705	107.096677665958	297
1	1705	107.096677665958	298
1	1705	107.096677665958	299
1	1728	108.405564465187	300
1	1728	108.405564465187	301
1	1728	108.405564465187	302
1	1728	108.405564465187	303
1	1751	110.38685174218	304
1	1751	110.38685174218	305
1	1751	110.38685174218	306
1	1751	110.38685174218	307
1	1774	111.585579560704	308
1	1774	111.585579560704	309
1	1774	111.585579560704	310
1	1774	111.585579560704	311
1	1797	113.151810362584	312
1	1797	113.151810362584	313
1	1797	113.151810362584	314
1	1797	113.151810362584	315
1	1820	114.728805821376	316
1	1820	114.728805821376	317
1	1820	114.728805821376	318
1	1820	114.728805821376	319
1	1843	116.13264582452	320
1	1843	116.13264582452	321
1	1843	116.13264582452	322
1	1843	116.13264582452	323
1	1866	117.417800415002	324
1	1866	117.417800415002	325
1	1866	117.417800415002	326
1	1866	117.417800415002	327
1	1889	119.077429892654	328
1	1889	119.077429892654	329
1	1889	119.077429892654	330
1	1889	119.077429892654	331
1	1912	120.60426923905	332
1	1912	120.60426923905	333
1	1912	120.60426923905	334
1	1912	120.60426923905	335
1	1935	122.391074907888	336
1	1935	122.391074907888	337
1	1935	122.391074907888	338
1	1935	122.391074907888	339
1	1958	123.915761910721	340
1	1958	123.915761910721	341
1	1958	123.915761910721	342
1	1958	123.915761910721	343
1	1981	125.199104221844	344
1	1981	125.199104221844	345
1	1981	125.199104221844	346
1	1981	125.199104221844	347
1	2004	126.945269311453	348
1	2004	126.945269311453	349
1	2004	126.945269311453	350
1	2004	126.945269311453	351
1	2027	128.280849342363	352
1	2027	128.280849342363	353
1	2027	128.280849342363	354
1	2027	128.280849342363	355
1	2050	129.441538847399	356
1	2050	129.441538847399	357
1	2050	129.441538847399	358
1	2050	129.441538847399	359
1	2073	130.758700442062	360
1	2073	130.758700442062	361
1	2073	130.758700442062	362
1	2073	130.758700442062	363
1	2096	132.045541656129	364
1	2096	132.045541656129	365
1	2096	132.045541656129	366
1	2096	132.045541656129	367
1	2119	134.039559766027	368
1	2119	134.039559766027	369
1	2119	134.039559766027	370
1	2119	134.039559766027	371
1	2142	135.09552069627	372
1	2142	135.09552069627	373
1	2142	135.09552069627	374
1	2142	135.09552069627	375
1	2165	136.466969759043	376
1	2165	136.466969759043	377
1	2165	136.466969759043	378
1	2165	136.466969759043	379
1	2188	138.390663725569	380
1	2188	138.390663725569	381
1	2188	138.390663725569	382
1	2188	138.390663725569	383
1	2211	140.008176238194	384
1	2211	140.008176238194	385
1	2211	140.008176238194	386
1	2211	140.008176238194	387
1	2234	141.174589482525	388
1	2234	141.174589482525	389
1	2234	141.174589482525	390
1	2234	141.174589482525	391
1	2257	143.151561540913	392
1	2257	143.151561540913	393
1	2257	143.151561540913	394
1	2257	143.151561540913	395
1	2280	144.328259396152	396
1	2280	144.328259396152	397
1	2280	144.328259396152	398
1	2280	144.328259396152	399
1	2303	145.674792397482	400
1	2303	145.674792397482	401
1	2303	145.674792397482	402
1	2303	145.674792397482	403
1	2326	147.425147695826	404
1	2326	147.425147695826	405
1	2326	147.425147695826	406
1	2326	147.425147695826	407
1	2349	148.535305373487	408
1	2349	148.535305373487	409
1	2349	148.535305373487	410
1	2349	148.535305373487	411
1	2372	150.258899978265	412
1	2372	150.258899978265	413
1	2372	150.258899978265	414
1	2372	150.258899978265	415
1	2395	151.932572757274	416
1	2395	151.932572757274	417
1	2395	151.932572757274	418
1	2395	151.932572757274	419
1	2418	153.886441449751	420
1	2418	153.886441449751	421
1	2418	153.886441449751	422
1	2418	153.886441449751	423
1	2441	155.596602688298	424
1	2441	155.596602688298	425
1	2441	155.596602688298	426
1	2441	155.596602688298	427
1	2464	157.126138040249	428
1	2464	157.126138040249	429
1	2464	157.126138040249	430
1	2464	157.126138040249	431
1	2487	158.856918519846	432
1	2487	158.856918519846	433
1	2487	158.856918519846	434
1	2487	158.856918519846	435
1	2510	160.650169451472	436
1	2510	160.650169451472	437
1	2510	160.650169451472	438
1	2510	160.650169451472	439
1	2533	162.571213846357	440
1	2533	162.571213846357	441
1	2533	162.571213846357	442
1	2533	162.571213846357	443
1	2556	163.755232328272	444
1	2556	163.755232328272	445
1	2556	163.755232328272	446
1	2556	163.755232328272	447
1	2579	165.004544056475	448
1	2579	165.004544056475	449
1	2579	165.004544056475	450
1	2579	165.004544056475	451
1	2602	166.340632382562	452
1	2602	166.340632382562	453
1	2602	166.340632382562	454
1	2602	166.340632382562	455
1	2625	167.606836115715	456
1	2625	167.606836115715	457
1	2625	167.606836115715	458
1	2625	167.606836115715	459
1	2648	168.626410303816	460
1	2648	168.626410303816	461
1	2648	168.626410303816	462
1	2648	168.626410303816	463
1	2671	169.980326424303	464
1	2671	169.980326424303	465
1	2671	169.980326424303	466
1	2671	169.980326424303	467
1	2694	171.613821867074	468
1	2694	171.613821867074	469
1	2694	171.613821867074	470
1	2694	171.613821867074	471
1	2717	173.431171350369	472
1	2717	173.431171350369	473
1	2717	173.431171350369	474
1	2717	173.431171350369	475
1	2740	174.575591991032	476
1	2740	174.575591991032	477
1	2740	174.575591991032	478
1	2740	174.575591991032	479
1	2763	176.38950013647	480
1	2763	176.38950013647	481
1	2763	176.38950013647	482
1	2763	176.38950013647	483
1	2786	178.257139995193	484
1	2786	178.257139995193	485
1	2786	178.257139995193	486
1	2786	178.257139995193	487
1	2809	179.496033672085	488
1	2809	179.496033672085	489
1	2809	179.496033672085	490
1	2809	179.496033672085	491
1	2832	180.669989993825	492
1	2832	180.669989993825	493
1	2832	180.669989993825	494
1	2832	180.669989993825	495
1	2855	182.556088801393	496
1	2855	182.556088801393	497
1	2855	182.556088801393	498
1	2855	182.556088801393	499
1	2878	184.460766857768	500
1	2878	184.460766857768	501
1	2878	184.460766857768	502
1	2878	184.460766857768	503
1	2901	185.981790392695	504
1	2901	185.981790392695	505
1	2901	185.981790392695	506
1	2901	185.981790392695	507
1	2924	187.691907882286	508
1	2924	187.691907882286	509
1	2924	187.691907882286	510
1	2924	187.691907882286	511
1	2947	189.136883736974	512
1	2947	189.136883736974	513
1	2947	189.136883736974	514
1	2947	189.136883736974	515
1	2970	190.160400896344	516
1	2970	190.160400896344	517
1	2970	190.160400896344	518
1	2970	190.160400896344	519
1	2993	191.354937140819	520
1	2993	191.354937140819	521
1	2993	191.354937140819	522
1	2993	191.354937140819	523
1	3016	192.701401055652	524
1	3016	192.701401055652	525
1	3016	192.701401055652	526
1	3016	192.701401055652	527
1	3039	193.863835867216	528
1	3039	193.863835867216	529
1	3039	193.863835867216	530
1	3039	193.863835867216	531
1	3062	194.90867918506	532
1	3062	194.90867918506	533
1	3062	194.90867918506	534
1	3062	194.90867918506	535
1	3085	196.074736650029	536
1	3085	196.074736650029	537
1	3085	196.074736650029	538
1	3085	196.074736650029	539
1	3108	197.366783075238	540
1	3108	197.366783075238	541
1	3108	197.366783075238	542
1	3108	197.366783075238	543
1	3131	198.59897513787	544
1	3131	198.59897513787	545
1	3131	198.59897513787	546
1	3131	198.59897513787	547
1	3154	200.590799962363	548
1	3154	200.590799962363	549
1	3154	200.590799962363	550
1	3154	200.590799962363	551
1	3177	201.973821556659	552
1	3177	201.973821556659	553
1	3177	201.973821556659	554
1	3177	201.973821556659	555
1	3200	203.708414513424	556
1	3200	203.708414513424	557
1	3200	203.708414513424	558
1	3200	203.708414513424	559
1	3223	205.142003072157	560
1	3223	205.142003072157	561
1	3223	205.142003072157	562
1	3223	205.142003072157	563
1	3246	207.053753647323	564
1	3246	207.053753647323	565
1	3246	207.053753647323	566
1	3246	207.053753647323	567
1	3269	208.888311850869	568
1	3269	208.888311850869	569
1	3269	208.888311850869	570
1	3269	208.888311850869	571
1	3292	210.652618874603	572
1	3292	210.652618874603	573
1	3292	210.652618874603	574
1	3292	210.652618874603	575
1	3315	211.947844708863	576
1	3315	211.947844708863	577
1	3315	211.947844708863	578
1	3315	211.947844708863	579
1	3338	213.88477047263	580
1	3338	213.88477047263	581
1	3338	213.88477047263	582
1	3338	213.88477047263	583
1	3361	215.375909600602	584
1	3361	215.375909600602	585
1	3361	215.375909600602	586
1	3361	215.375909600602	587
1	3384	216.599748426886	588
1	3384	216.599748426886	589
1	3384	216.599748426886	590
1	3384	216.599748426886	591
1	3407	218.43935446783	592
1	3407	218.43935446783	593
1	3407	218.43935446783	594
1	3407	218.43935446783	595
1	3430	220.240805946102	596
1	3430	220.240805946102	597
1	3430	220.240805946102	598
1	3430	220.240805946102	599
1	3453	221.66302446069	600
1	3453	221.66302446069	601
1	3453	221.66302446069	602
1	3453	221.66302446069	603
1	3476	223.390412610378	604
1	3476	223.390412610378	605
1	3476	223.390412610378	606
1	3476	223.390412610378	607
1	3499	224.873972044227	608
1	3499	224.873972044227	609
1	3499	224.873972044227	610
1	3499	224.873972044227	611
1	3522	226.066521089147	612
1	3522	226.066521089147	613
1	3522	226.066521089147	614
1	3522	226.066521089147	615
1	3545	227.729286535017	616
1	3545	227.729286535017	617
1	3545	227.729286535017	618
1	3545	227.729286535017	619
1	3568	229.635457062283	620
1	3568	229.635457062283	621
1	3568	229.635457062283	622
1	3568	229.635457062283	623
1	3591	230.686624655054	624
1	3591	230.686624655054	625
1	3591	230.686624655054	626
1	3591	230.686624655054	627
1	3614	231.962128664202	628
1	3614	231.962128664202	629
1	3614	231.962128664202	630
1	3614	231.962128664202	631
1	3637	233.137738866052	632
1	3637	233.137738866052	633
1	3637	233.137738866052	634
1	3637	233.137738866052	635
1	3660	234.81842398474	636
1	3660	234.81842398474	637
1	3660	234.81842398474	638
1	3660	234.81842398474	639
1	3683	236.68238162246	640
1	3683	236.68238162246	641
1	3683	236.68238162246	642
1	3683	236.68238162246	643
1	3706	238.359929465174	644
1	3706	238.359929465174	645
1	3706	238.359929465174	646
1	3706	238.359929465174	647
2	8	0.160124635094	0
2	8	0.160124635094	1
2	8	0.160124635094	2
2	8	0.160124635094	3
2	31	1.215425799207	4
2	31	1.215425799207	5
2	31	1.215425799207	6
2	31	1.215425799207	7
2	55	2.872352958775	8
2	55	2.872352958775	9
2	55	2.872352958775	10
2	55	2.872352958775	11
2	82	4.332226914715	12
2	82	4.332226914715	13
2	82	4.332226914715	14
2	82	4.332226914715	15
2	102	5.424080213564	16
2	102	5.424080213564	17
2	102	5.424080213564	18
2	102	5.424080213564	19
2	130	7.302668141544	20
2	130	7.302668141544	21
2	130	7.302668141544	22
2	130	7.302668141544	23
2	148	8.982968032333	24
2	148	8.982968032333	25
2	148	8.982968032333	26
2	148	8.982968032333	27
2	171	9.997771202102	28
2	171	9.997771202102	29
2	171	9.997771202102	30
2	171	9.997771202102	31
2	200	11.577361505698	32
2	200	11.577361505698	33
2	200	11.577361505698	34
2	200	11.577361505698	35
2	217	12.902764913316	36
2	217	12.902764913316	37
2	217	12.902764913316	38
2	217	12.902764913316	39
2	240	14.744653875992	40
2	240	14.744653875992	41
2	240	14.744653875992	42
2	240	14.744653875992	43
2	261	15.861643592726	44
2	261	15.861643592726	45
2	261	15.861643592726	46
2	261	15.861643592726	47
2	285	17.310417493675	48
2	285	17.310417493675	49
2	285	17.310417493675	50
2	285	17.310417493675	51
2	312	18.658905109236	52
2	312	18.658905109236	53
2	312	18.658905109236	54
2	312	18.658905109236	55
2	330	19.955629775484	56
2	330	19.955629775484	57
2	330	19.955629775484	58
2	330	19.955629775484	59
2	356	21.077798574111	60
2	356	21.077798574111	61
2	356	21.077798574111	62
2	356	21.077798574111	63
2	376	22.487681251578	64
2	376	22.487681251578	65
2	376	22.487681251578	66
2	376	22.487681251578	67
2	407	23.917891694153	68
2	407	23.917891694153	69
2	407	23.917891694153	70
2	407	23.917891694153	71
2	424	25.38773178889	72
2	424	25.38773178889	73
2	424	25.38773178889	74
2	424	25.38773178889	75
2	445	27.360672846705	76
2	445	27.360672846705	77
2	445	27.360672846705	78
2	445	27.360672846705	79
2	476	28.416633697501	80
2	476	28.416633697501	81
2	476	28.416633697501	82
2	476	28.416633697501	83
2	491	30.167227812625	84
2	491	30.167227812625	85
2	491	30.167227812625	86
2	491	30.167227812625	87
2	515	31.256758613123	88
2	515	31.256758613123	89
2	515	31.256758613123	90
2	515	31.256758613123	91
2	537	32.827513012087	92
2	537	32.827513012087	93
2	537	32.827513012087	94
2	537	32.827513012087	95
2	561	33.939919907319	96
2	561	33.939919907319	97
2	561	33.939919907319	98
2	561	33.939919907319	99
2	587	35.7509185075	100
2	587	35.7509185075	101
2	587	35.7509185075	102
2	587	35.7509185075	103
2	607	37.247777769865	104
2	607	37.247777769865	105
2	607	37.247777769865	106
2	607	37.247777769865	107
2	629	38.8637689896	108
2	629	38.8637689896	109
2	629	38.8637689896	110
2	629	38.8637689896	111
2	653	39.964922156796	112
2	653	39.964922156796	113
2	653	39.964922156796	114
2	653	39.964922156796	115
2	675	41.843766613339	116
2	675	41.843766613339	117
2	675	41.843766613339	118
2	675	41.843766613339	119
2	706	43.16178608759	120
2	706	43.16178608759	121
2	706	43.16178608759	122
2	706	43.16178608759	123
2	729	44.799002862304	124
2	729	44.799002862304	125
2	729	44.799002862304	126
2	729	44.799002862304	127
2	746	45.752451325367	128
2	746	45.752451325367	129
2	746	45.752451325367	130
2	746	45.752451325367	131
2	767	46.824461170421	132
2	767	46.824461170421	133
2	767	46.824461170421	134
2	767	46.824461170421	135
2	791	47.970047107132	136
2	791	47.970047107132	137
2	791	47.970047107132	138
2	791	47.970047107132	139
2	821	49.111768980616	140
2	821	49.111768980616	141
2	821	49.111768980616	142
2	821	49.111768980616	143
2	838	50.819804841984	144
2	838	50.819804841984	145
2	838	50.819804841984	146
2	838	50.819804841984	147
2	870	52.018109344521	148
2	870	52.018109344521	149
2	870	52.018109344521	150
2	870	52.018109344521	151
2	883	53.353083195208	152
2	883	53.353083195208	153
2	883	53.353083195208	154
2	883	53.353083195208	155
2	906	54.961778670818	156
2	906	54.961778670818	157
2	906	54.961778670818	158
2	906	54.961778670818	159
2	931	56.702545549241	160
2	931	56.702545549241	161
2	931	56.702545549241	162
2	931	56.702545549241	163
2	958	58.04901094445	164
2	958	58.04901094445	165
2	958	58.04901094445	166
2	958	58.04901094445	167
2	976	59.22695163695	168
2	976	59.22695163695	169
2	976	59.22695163695	170
2	976	59.22695163695	171
2	997	60.327286369414	172
2	997	60.327286369414	173
2	997	60.327286369414	174
2	997	60.327286369414	175
2	1026	61.877177714974	176
2	1026	61.877177714974	177
2	1026	61.877177714974	178
2	1026	61.877177714974	179
2	1043	63.690183753466	180
2	1043	63.690183753466	181
2	1043	63.690183753466	182
2	1043	63.690183753466	183
2	1068	64.757112260423	184
2	1068	64.757112260423	185
2	1068	64.757112260423	186
2	1068	64.757112260423	187
2	1089	66.038253855039	188
2	1089	66.038253855039	189
2	1089	66.038253855039	190
2	1089	66.038253855039	191
2	1112	67.342538417043	192
2	1112	67.342538417043	193
2	1112	67.342538417043	194
2	1112	67.342538417043	195
2	1135	68.815381133433	196
2	1135	68.815381133433	197
2	1135	68.815381133433	198
2	1135	68.815381133433	199
2	1165	70.391124837729	200
2	1165	70.391124837729	201
2	1165	70.391124837729	202
2	1165	70.391124837729	203
2	1181	72.168590165324	204
2	1181	72.168590165324	205
2	1181	72.168590165324	206
2	1181	72.168590165324	207
2	1204	73.555528865112	208
2	1204	73.555528865112	209
2	1204	73.555528865112	210
2	1204	73.555528865112	211
2	1229	74.781132142348	212
2	1229	74.781132142348	213
2	1229	74.781132142348	214
2	1229	74.781132142348	215
2	1250	76.253184975201	216
2	1250	76.253184975201	217
2	1250	76.253184975201	218
2	1250	76.253184975201	219
2	1273	77.765856543581	220
2	1273	77.765856543581	221
2	1273	77.765856543581	222
2	1273	77.765856543581	223
2	1296	78.911543089692	224
2	1296	78.911543089692	225
2	1296	78.911543089692	226
2	1296	78.911543089692	227
2	1320	79.936483584066	228
2	1320	79.936483584066	229
2	1320	79.936483584066	230
2	1320	79.936483584066	231
2	1342	81.680906339057	232
2	1342	81.680906339057	233
2	1342	81.680906339057	234
2	1342	81.680906339057	235
2	1365	83.52752891065	236
2	1365	83.52752891065	237
2	1365	83.52752891065	238
2	1365	83.52752891065	239
2	1388	85.17848654257	240
2	1388	85.17848654257	241
2	1388	85.17848654257	242
2	1388	85.17848654257	243
2	1413	86.483795560962	244
2	1413	86.483795560962	245
2	1413	86.483795560962	246
2	1413	86.483795560962	247
2	1442	88.149514418006	248
2	1442	88.149514418006	249
2	1442	88.149514418006	250
2	1442	88.149514418006	251
2	1460	89.298357720412	252
2	1460	89.298357720412	253
2	1460	89.298357720412	254
2	1460	89.298357720412	255
2	1482	91.060240041888	256
2	1482	91.060240041888	257
2	1482	91.060240041888	258
2	1482	91.060240041888	259
2	1503	92.991890818278	260
2	1503	92.991890818278	261
2	1503	92.991890818278	262
2	1503	92.991890818278	263
2	1527	94.246337582348	264
2	1527	94.246337582348	265
2	1527	94.246337582348	266
2	1527	94.246337582348	267
2	1556	95.815146337486	268
2	1556	95.815146337486	269
2	1556	95.815146337486	270
2	1556	95.815146337486	271
2	1572	97.306262446612	272
2	1572	97.306262446612	273
2	1572	97.306262446612	274
2	1572	97.306262446612	275
2	1595	98.48611562762	276
2	1595	98.48611562762	277
2	1595	98.48611562762	278
2	1595	98.48611562762	279
2	1620	100.188547561655	280
2	1620	100.188547561655	281
2	1620	100.188547561655	282
2	1620	100.188547561655	283
2	1643	102.079240021031	284
2	1643	102.079240021031	285
2	1643	102.079240021031	286
2	1643	102.079240021031	287
2	1665	103.662229642489	288
2	1665	103.662229642489	289
2	1665	103.662229642489	290
2	1665	103.662229642489	291
2	1687	105.26200056696	292
2	1687	105.26200056696	293
2	1687	105.26200056696	294
2	1687	105.26200056696	295
2	1710	107.11148292122	296
2	1710	107.11148292122	297
2	1710	107.11148292122	298
2	1710	107.11148292122	299
2	1735	108.4269247962	300
2	1735	108.4269247962	301
2	1735	108.4269247962	302
2	1735	108.4269247962	303
2	1757	110.39921458302	304
2	1757	110.39921458302	305
2	1757	110.39921458302	306
2	1757	110.39921458302	307
2	1780	111.601293453082	308
2	1780	111.601293453082	309
2	1780	111.601293453082	310
2	1780	111.601293453082	311
2	1803	113.172686569619	312
2	1803	113.172686569619	313
2	1803	113.172686569619	314
2	1803	113.172686569619	315
2	1826	114.752197576141	316
2	1826	114.752197576141	317
2	1826	114.752197576141	318
2	1826	114.752197576141	319
2	1848	116.148007541184	320
2	1848	116.148007541184	321
2	1848	116.148007541184	322
2	1848	116.148007541184	323
2	1871	117.430820159202	324
2	1871	117.430820159202	325
2	1871	117.430820159202	326
2	1871	117.430820159202	327
2	1895	119.10562010434	328
2	1895	119.10562010434	329
2	1895	119.10562010434	330
2	1895	119.10562010434	331
2	1917	120.614608428448	332
2	1917	120.614608428448	333
2	1917	120.614608428448	334
2	1917	120.614608428448	335
2	1948	122.424162734494	336
2	1948	122.424162734494	337
2	1948	122.424162734494	338
2	1948	122.424162734494	339
2	1963	123.927401050012	340
2	1963	123.927401050012	341
2	1963	123.927401050012	342
2	1963	123.927401050012	343
2	1997	125.244867703525	344
2	1997	125.244867703525	345
2	1997	125.244867703525	346
2	1997	125.244867703525	347
2	2017	126.980247617083	348
2	2017	126.980247617083	349
2	2017	126.980247617083	350
2	2017	126.980247617083	351
2	2033	128.291709939978	352
2	2033	128.291709939978	353
2	2033	128.291709939978	354
2	2033	128.291709939978	355
2	2056	129.458069300943	356
2	2056	129.458069300943	357
2	2056	129.458069300943	358
2	2056	129.458069300943	359
2	2078	130.777692628432	360
2	2078	130.777692628432	361
2	2078	130.777692628432	362
2	2078	130.777692628432	363
2	2101	132.056965873036	364
2	2101	132.056965873036	365
2	2101	132.056965873036	366
2	2101	132.056965873036	367
2	2131	134.072354540954	368
2	2131	134.072354540954	369
2	2131	134.072354540954	370
2	2131	134.072354540954	371
2	2147	135.113376983663	372
2	2147	135.113376983663	373
2	2147	135.113376983663	374
2	2147	135.113376983663	375
2	2171	136.489676849159	376
2	2171	136.489676849159	377
2	2171	136.489676849159	378
2	2171	136.489676849159	379
2	2194	138.411706576595	380
2	2194	138.411706576595	381
2	2194	138.411706576595	382
2	2194	138.411706576595	383
2	2217	140.028042291892	384
2	2217	140.028042291892	385
2	2217	140.028042291892	386
2	2217	140.028042291892	387
2	2239	141.187678428234	388
2	2239	141.187678428234	389
2	2239	141.187678428234	390
2	2239	141.187678428234	391
2	2266	143.179629672311	392
2	2266	143.179629672311	393
2	2266	143.179629672311	394
2	2266	143.179629672311	395
2	2287	144.354733614416	396
2	2287	144.354733614416	397
2	2287	144.354733614416	398
2	2287	144.354733614416	399
2	2308	145.689378602111	400
2	2308	145.689378602111	401
2	2308	145.689378602111	402
2	2308	145.689378602111	403
2	2331	147.436380658424	404
2	2331	147.436380658424	405
2	2331	147.436380658424	406
2	2331	147.436380658424	407
2	2359	148.570224580925	408
2	2359	148.570224580925	409
2	2359	148.570224580925	410
2	2359	148.570224580925	411
2	2378	150.289308625019	412
2	2378	150.289308625019	413
2	2378	150.289308625019	414
2	2378	150.289308625019	415
2	2400	151.942702009956	416
2	2400	151.942702009956	417
2	2400	151.942702009956	418
2	2400	151.942702009956	419
2	2423	153.907723474723	420
2	2423	153.907723474723	421
2	2423	153.907723474723	422
2	2423	153.907723474723	423
2	2457	155.642883918376	424
2	2457	155.642883918376	425
2	2457	155.642883918376	426
2	2457	155.642883918376	427
2	2470	157.146815302578	428
2	2470	157.146815302578	429
2	2470	157.146815302578	430
2	2470	157.146815302578	431
2	2495	158.885668065632	432
2	2495	158.885668065632	433
2	2495	158.885668065632	434
2	2495	158.885668065632	435
2	2515	160.668464614921	436
2	2515	160.668464614921	437
2	2515	160.668464614921	438
2	2515	160.668464614921	439
2	2545	162.607700476698	440
2	2545	162.607700476698	441
2	2545	162.607700476698	442
2	2545	162.607700476698	443
2	2568	163.809434853246	444
2	2568	163.809434853246	445
2	2568	163.809434853246	446
2	2568	163.809434853246	447
2	2588	165.030159120359	448
2	2588	165.030159120359	449
2	2588	165.030159120359	450
2	2588	165.030159120359	451
2	2614	166.363194440084	452
2	2614	166.363194440084	453
2	2614	166.363194440084	454
2	2614	166.363194440084	455
2	2632	167.627531118116	456
2	2632	167.627531118116	457
2	2632	167.627531118116	458
2	2632	167.627531118116	459
2	2656	168.647734875239	460
2	2656	168.647734875239	461
2	2656	168.647734875239	462
2	2656	168.647734875239	463
2	2676	169.992578135925	464
2	2676	169.992578135925	465
2	2676	169.992578135925	466
2	2676	169.992578135925	467
2	2699	171.625051442438	468
2	2699	171.625051442438	469
2	2699	171.625051442438	470
2	2699	171.625051442438	471
2	2722	173.442642683403	472
2	2722	173.442642683403	473
2	2722	173.442642683403	474
2	2722	173.442642683403	475
2	2745	174.58596764026	476
2	2745	174.58596764026	477
2	2745	174.58596764026	478
2	2745	174.58596764026	479
2	2776	176.422819468484	480
2	2776	176.422819468484	481
2	2776	176.422819468484	482
2	2776	176.422819468484	483
2	2793	178.278470862581	484
2	2793	178.278470862581	485
2	2793	178.278470862581	486
2	2793	178.278470862581	487
2	2816	179.509610811364	488
2	2816	179.509610811364	489
2	2816	179.509610811364	490
2	2816	179.509610811364	491
2	2838	180.686337527034	492
2	2838	180.686337527034	493
2	2838	180.686337527034	494
2	2838	180.686337527034	495
2	2860	182.570910797125	496
2	2860	182.570910797125	497
2	2860	182.570910797125	498
2	2860	182.570910797125	499
2	2883	184.473262672607	500
2	2883	184.473262672607	501
2	2883	184.473262672607	502
2	2883	184.473262672607	503
2	2907	185.997646638641	504
2	2907	185.997646638641	505
2	2907	185.997646638641	506
2	2907	185.997646638641	507
2	2929	187.702663461118	508
2	2929	187.702663461118	509
2	2929	187.702663461118	510
2	2929	187.702663461118	511
2	2954	189.155207523902	512
2	2954	189.155207523902	513
2	2954	189.155207523902	514
2	2954	189.155207523902	515
2	2976	190.177188015041	516
2	2976	190.177188015041	517
2	2976	190.177188015041	518
2	2976	190.177188015041	519
2	2998	191.36693642635	520
2	2998	191.36693642635	521
2	2998	191.36693642635	522
2	2998	191.36693642635	523
2	3021	192.716144232802	524
2	3021	192.716144232802	525
2	3021	192.716144232802	526
2	3021	192.716144232802	527
2	3044	193.878049469373	528
2	3044	193.878049469373	529
2	3044	193.878049469373	530
2	3044	193.878049469373	531
2	3069	194.930675631469	532
2	3069	194.930675631469	533
2	3069	194.930675631469	534
2	3069	194.930675631469	535
2	3090	196.087648881416	536
2	3090	196.087648881416	537
2	3090	196.087648881416	538
2	3090	196.087648881416	539
2	3115	197.387919976781	540
2	3115	197.387919976781	541
2	3115	197.387919976781	542
2	3115	197.387919976781	543
2	3136	198.617976564966	544
2	3136	198.617976564966	545
2	3136	198.617976564966	546
2	3136	198.617976564966	547
2	3164	200.619174385749	548
2	3164	200.619174385749	549
2	3164	200.619174385749	550
2	3164	200.619174385749	551
2	3183	201.990815930112	552
2	3183	201.990815930112	553
2	3183	201.990815930112	554
2	3183	201.990815930112	555
2	3213	203.751534277548	556
2	3213	203.751534277548	557
2	3213	203.751534277548	558
2	3213	203.751534277548	559
2	3229	205.163031952995	560
2	3229	205.163031952995	561
2	3229	205.163031952995	562
2	3229	205.163031952995	563
2	3262	207.087250150238	564
2	3262	207.087250150238	565
2	3262	207.087250150238	566
2	3262	207.087250150238	567
2	3281	208.920617178647	568
2	3281	208.920617178647	569
2	3281	208.920617178647	570
2	3281	208.920617178647	571
2	3298	210.669083300694	572
2	3298	210.669083300694	573
2	3298	210.669083300694	574
2	3298	210.669083300694	575
2	3321	211.960369843001	576
2	3321	211.960369843001	577
2	3321	211.960369843001	578
2	3321	211.960369843001	579
2	3351	213.914604620413	580
2	3351	213.914604620413	581
2	3351	213.914604620413	582
2	3351	213.914604620413	583
2	3366	215.388167461745	584
2	3366	215.388167461745	585
2	3366	215.388167461745	586
2	3366	215.388167461745	587
2	3389	216.613564817583	588
2	3389	216.613564817583	589
2	3389	216.613564817583	590
2	3389	216.613564817583	591
2	3420	218.476028424632	592
2	3420	218.476028424632	593
2	3420	218.476028424632	594
2	3420	218.476028424632	595
2	3435	220.251461044391	596
2	3435	220.251461044391	597
2	3435	220.251461044391	598
2	3435	220.251461044391	599
2	3458	221.67343241357	600
2	3458	221.67343241357	601
2	3458	221.67343241357	602
2	3458	221.67343241357	603
2	3489	223.439977929093	604
2	3489	223.439977929093	605
2	3489	223.439977929093	606
2	3489	223.439977929093	607
2	3504	224.88411328132	608
2	3504	224.88411328132	609
2	3504	224.88411328132	610
2	3504	224.88411328132	611
2	3534	226.090120739919	612
2	3534	226.090120739919	613
2	3534	226.090120739919	614
2	3534	226.090120739919	615
2	3550	227.740461800726	616
2	3550	227.740461800726	617
2	3550	227.740461800726	618
2	3550	227.740461800726	619
2	3581	229.673450282606	620
2	3581	229.673450282606	621
2	3581	229.673450282606	622
2	3581	229.673450282606	623
2	3597	230.703382128321	624
2	3597	230.703382128321	625
2	3597	230.703382128321	626
2	3597	230.703382128321	627
2	3626	231.990726241738	628
2	3626	231.990726241738	629
2	3626	231.990726241738	630
2	3626	231.990726241738	631
2	3647	233.164051460328	632
2	3647	233.164051460328	633
2	3647	233.164051460328	634
2	3647	233.164051460328	635
2	3665	234.832336127959	636
2	3665	234.832336127959	637
2	3665	234.832336127959	638
2	3665	234.832336127959	639
2	3689	236.697070821112	640
2	3689	236.697070821112	641
2	3689	236.697070821112	642
2	3689	236.697070821112	643
2	3712	238.377702136263	644
2	3712	238.377702136263	645
2	3712	238.377702136263	646
2	3712	238.377702136263	647
3	13	0.172447018919	0
3	13	0.172447018919	1
3	13	0.172447018919	2
3	37	1.230573477085	3
3	37	1.230573477085	4
3	37	1.230573477085	5
3	66	2.918499741877	6
3	66	2.918499741877	7
3	66	2.918499741877	8
3	89	4.343747853225	9
3	89	4.343747853225	10
3	89	4.343747853225	11
3	112	5.436925201134	12
3	112	5.436925201134	13
3	112	5.436925201134	14
3	131	7.308195516908	15
3	131	7.308195516908	16
3	131	7.308195516908	17
3	152	8.987295246016	18
3	152	8.987295246016	19
3	152	8.987295246016	20
3	177	10.006343829268	21
3	177	10.006343829268	22
3	177	10.006343829268	23
3	199	11.575005215102	24
3	199	11.575005215102	25
3	199	11.575005215102	26
3	227	12.92946917715	27
3	227	12.92946917715	28
3	227	12.92946917715	29
3	250	14.760341264395	30
3	250	14.760341264395	31
3	250	14.760341264395	32
3	273	15.935316084993	33
3	273	15.935316084993	34
3	273	15.935316084993	35
3	296	17.333405900473	36
3	296	17.333405900473	37
3	296	17.333405900473	38
3	315	18.667125128832	39
3	315	18.667125128832	40
3	315	18.667125128832	41
3	335	19.96806259356	42
3	335	19.96806259356	43
3	335	19.96806259356	44
3	365	21.093578965985	45
3	365	21.093578965985	46
3	365	21.093578965985	47
3	382	22.499380389228	48
3	382	22.499380389228	49
3	382	22.499380389228	50
3	406	23.911343836081	51
3	406	23.911343836081	52
3	406	23.911343836081	53
3	430	25.391461527321	54
3	430	25.391461527321	55
3	430	25.391461527321	56
3	454	27.383772090478	57
3	454	27.383772090478	58
3	454	27.383772090478	59
3	475	28.416064592264	60
3	475	28.416064592264	61
3	475	28.416064592264	62
3	503	30.195485324034	63
3	503	30.195485324034	64
3	503	30.195485324034	65
3	523	31.272662968812	66
3	523	31.272662968812	67
3	523	31.272662968812	68
3	543	32.837745933509	69
3	543	32.837745933509	70
3	543	32.837745933509	71
3	570	33.963497347117	72
3	570	33.963497347117	73
3	570	33.963497347117	74
3	595	35.768465767643	75
3	595	35.768465767643	76
3	595	35.768465767643	77
3	618	37.264555822834	78
3	618	37.264555822834	79
3	618	37.264555822834	80
3	635	38.87556743046	81
3	635	38.87556743046	82
3	635	38.87556743046	83
3	661	39.976495656739	84
3	661	39.976495656739	85
3	661	39.976495656739	86
3	687	41.861251180597	87
3	687	41.861251180597	88
3	687	41.861251180597	89
3	705	43.157111478017	90
3	705	43.157111478017	91
3	705	43.157111478017	92
3	728	44.791600331643	93
3	728	44.791600331643	94
3	728	44.791600331643	95
3	756	45.765486320568	96
3	756	45.765486320568	97
3	756	45.765486320568	98
3	779	46.844086935333	99
3	779	46.844086935333	100
3	779	46.844086935333	101
3	802	47.986865808626	102
3	802	47.986865808626	103
3	802	47.986865808626	104
3	818	49.102011675997	105
3	818	49.102011675997	106
3	818	49.102011675997	107
3	848	50.835561162991	108
3	848	50.835561162991	109
3	848	50.835561162991	110
3	866	52.00533744432	111
3	866	52.00533744432	112
3	866	52.00533744432	113
3	894	53.37736495383	114
3	894	53.37736495383	115
3	894	53.37736495383	116
3	917	54.981761543958	117
3	917	54.981761543958	118
3	917	54.981761543958	119
3	940	56.719280188586	120
3	940	56.719280188586	121
3	940	56.719280188586	122
3	959	58.050495227341	123
3	959	58.050495227341	124
3	959	58.050495227341	125
3	986	59.259355477715	126
3	986	59.259355477715	127
3	986	59.259355477715	128
3	1006	60.345090627977	129
3	1006	60.345090627977	130
3	1006	60.345090627977	131
3	1025	61.867968453748	132
3	1025	61.867968453748	133
3	1025	61.867968453748	134
3	1048	63.7053603288	135
3	1048	63.7053603288	136
3	1048	63.7053603288	137
3	1078	64.800835233577	138
3	1078	64.800835233577	139
3	1078	64.800835233577	140
3	1096	66.049350287282	141
3	1096	66.049350287282	142
3	1096	66.049350287282	143
3	1124	67.363415934263	144
3	1124	67.363415934263	145
3	1124	67.363415934263	146
3	1147	68.851067586711	147
3	1147	68.851067586711	148
3	1147	68.851067586711	149
3	1166	70.400606024127	150
3	1166	70.400606024127	151
3	1166	70.400606024127	152
3	1193	72.186069583126	153
3	1193	72.186069583126	154
3	1193	72.186069583126	155
3	1216	73.581190793597	156
3	1216	73.581190793597	157
3	1216	73.581190793597	158
3	1239	74.798424798486	159
3	1239	74.798424798486	160
3	1239	74.798424798486	161
3	1257	76.264228564914	162
3	1257	76.264228564914	163
3	1257	76.264228564914	164
3	1285	77.788064590426	165
3	1285	77.788064590426	166
3	1285	77.788064590426	167
3	1305	78.931823137253	168
3	1305	78.931823137253	169
3	1305	78.931823137253	170
3	1327	79.947668546711	171
3	1327	79.947668546711	172
3	1327	79.947668546711	173
3	1351	81.699163878743	174
3	1351	81.699163878743	175
3	1351	81.699163878743	176
3	1371	83.53946059332	177
3	1371	83.53946059332	178
3	1371	83.53946059332	179
3	1400	85.20020702798	180
3	1400	85.20020702798	181
3	1400	85.20020702798	182
3	1419	86.492635914229	183
3	1419	86.492635914229	184
3	1419	86.492635914229	185
3	1439	88.146233556758	186
3	1439	88.146233556758	187
3	1439	88.146233556758	188
3	1469	89.331018171151	189
3	1469	89.331018171151	190
3	1469	89.331018171151	191
3	1492	91.089623664759	192
3	1492	91.089623664759	193
3	1492	91.089623664759	194
3	1509	93.004236355112	195
3	1509	93.004236355112	196
3	1509	93.004236355112	197
3	1532	94.252620500103	198
3	1532	94.252620500103	199
3	1532	94.252620500103	200
3	1561	95.844677540797	201
3	1561	95.844677540797	202
3	1561	95.844677540797	203
3	1579	97.317959130414	204
3	1579	97.317959130414	205
3	1579	97.317959130414	206
3	1607	98.509466189635	207
3	1607	98.509466189635	208
3	1607	98.509466189635	209
3	1630	100.200307742639	210
3	1630	100.200307742639	211
3	1630	100.200307742639	212
3	1653	102.114890749303	213
3	1653	102.114890749303	214
3	1653	102.114890749303	215
3	1673	103.69272902595	216
3	1673	103.69272902595	217
3	1673	103.69272902595	218
3	1693	105.274672275667	219
3	1693	105.274672275667	220
3	1693	105.274672275667	221
3	1722	107.154510086	222
3	1722	107.154510086	223
3	1722	107.154510086	224
3	1745	108.440321091435	225
3	1745	108.440321091435	226
3	1745	108.440321091435	227
3	1768	110.456507467659	228
3	1768	110.456507467659	229
3	1768	110.456507467659	230
3	1785	111.609637678065	231
3	1785	111.609637678065	232
3	1785	111.609637678065	233
3	1814	113.235423652382	234
3	1814	113.235423652382	235
3	1814	113.235423652382	236
3	1837	114.777627514576	237
3	1837	114.777627514576	238
3	1837	114.777627514576	239
3	1853	116.158549891288	240
3	1853	116.158549891288	241
3	1853	116.158549891288	242
3	1878	117.441063191069	243
3	1878	117.441063191069	244
3	1878	117.441063191069	245
3	1906	119.11904855775	246
3	1906	119.11904855775	247
3	1906	119.11904855775	248
3	1923	120.625261079484	249
3	1923	120.625261079484	250
3	1923	120.625261079484	251
3	1947	122.418142366117	252
3	1947	122.418142366117	253
3	1947	122.418142366117	254
3	1975	123.972807917154	255
3	1975	123.972807917154	256
3	1975	123.972807917154	257
3	1993	125.226454657592	258
3	1993	125.226454657592	259
3	1993	125.226454657592	260
3	2016	126.973624215927	261
3	2016	126.973624215927	262
3	2016	126.973624215927	263
3	2044	128.312089059357	264
3	2044	128.312089059357	265
3	2044	128.312089059357	266
3	2067	129.486522573111	267
3	2067	129.486522573111	268
3	2067	129.486522573111	269
3	2087	130.798418130466	270
3	2087	130.798418130466	271
3	2087	130.798418130466	272
3	2113	132.083587355424	273
3	2113	132.083587355424	274
3	2113	132.083587355424	275
3	2132	134.078966298981	276
3	2132	134.078966298981	277
3	2132	134.078966298981	278
3	2159	135.133014149883	279
3	2159	135.133014149883	280
3	2159	135.133014149883	281
3	2180	136.500202419654	282
3	2180	136.500202419654	283
3	2180	136.500202419654	284
3	2202	138.423934435142	285
3	2202	138.423934435142	286
3	2202	138.423934435142	287
3	2224	140.038574199503	288
3	2224	140.038574199503	289
3	2224	140.038574199503	290
3	2248	141.224051078829	291
3	2248	141.224051078829	292
3	2248	141.224051078829	293
3	2268	143.187588562356	294
3	2268	143.187588562356	295
3	2268	143.187588562356	296
3	2291	144.355794901112	297
3	2291	144.355794901112	298
3	2291	144.355794901112	299
3	2314	145.705894609274	300
3	2314	145.705894609274	301
3	2314	145.705894609274	302
3	2340	147.457052771878	303
3	2340	147.457052771878	304
3	2340	147.457052771878	305
3	2358	148.568051094236	306
3	2358	148.568051094236	307
3	2358	148.568051094236	308
3	2389	150.311779112557	309
3	2389	150.311779112557	310
3	2389	150.311779112557	311
3	2406	151.953785048628	312
3	2406	151.953785048628	313
3	2406	151.953785048628	314
3	2429	153.921865060808	315
3	2429	153.921865060808	316
3	2429	153.921865060808	317
3	2453	155.621335566815	318
3	2453	155.621335566815	319
3	2453	155.621335566815	320
3	2478	157.15879480939	321
3	2478	157.15879480939	322
3	2478	157.15879480939	323
3	2504	158.910615260178	324
3	2504	158.910615260178	325
3	2504	158.910615260178	326
3	2527	160.696082895324	327
3	2527	160.696082895324	328
3	2527	160.696082895324	329
3	2546	162.613966017158	330
3	2546	162.613966017158	331
3	2546	162.613966017158	332
3	2573	163.820276524244	333
3	2573	163.820276524244	334
3	2573	163.820276524244	335
3	2596	165.041364389425	336
3	2596	165.041364389425	337
3	2596	165.041364389425	338
3	2615	166.368751095588	339
3	2615	166.368751095588	340
3	2615	166.368751095588	341
3	2642	167.639676260336	342
3	2642	167.639676260336	343
3	2642	167.639676260336	344
3	2661	168.65851144806	345
3	2661	168.65851144806	346
3	2661	168.65851144806	347
3	2685	170.004528737866	348
3	2685	170.004528737866	349
3	2685	170.004528737866	350
3	2711	171.645157799629	351
3	2711	171.645157799629	352
3	2711	171.645157799629	353
3	2728	173.456342164332	354
3	2728	173.456342164332	355
3	2728	173.456342164332	356
3	2757	174.614340659003	357
3	2757	174.614340659003	358
3	2757	174.614340659003	359
3	2775	176.413960301788	360
3	2775	176.413960301788	361
3	2775	176.413960301788	362
3	2803	178.290810921178	363
3	2803	178.290810921178	364
3	2803	178.290810921178	365
3	2822	179.519379543115	366
3	2822	179.519379543115	367
3	2822	179.519379543115	368
3	2846	180.697897544493	369
3	2846	180.697897544493	370
3	2846	180.697897544493	371
3	2869	182.584887776878	372
3	2869	182.584887776878	373
3	2869	182.584887776878	374
3	2895	184.498641231841	375
3	2895	184.498641231841	376
3	2895	184.498641231841	377
3	2918	186.026178686473	378
3	2918	186.026178686473	379
3	2918	186.026178686473	380
3	2936	187.715015155832	381
3	2936	187.715015155832	382
3	2936	187.715015155832	383
3	2960	189.164650705902	384
3	2960	189.164650705902	385
3	2960	189.164650705902	386
3	2987	190.190905403898	387
3	2987	190.190905403898	388
3	2987	190.190905403898	389
3	3004	191.377733412746	390
3	3004	191.377733412746	391
3	3004	191.377733412746	392
3	3030	192.728191145456	393
3	3030	192.728191145456	394
3	3030	192.728191145456	395
3	3050	193.892856888477	396
3	3050	193.892856888477	397
3	3050	193.892856888477	398
3	3079	194.943785757126	399
3	3079	194.943785757126	400
3	3079	194.943785757126	401
3	3100	196.122219451969	402
3	3100	196.122219451969	403
3	3100	196.122219451969	404
3	3121	197.39388442938	405
3	3121	197.39388442938	406
3	3121	197.39388442938	407
3	3148	198.636203410766	408
3	3148	198.636203410766	409
3	3148	198.636203410766	410
3	3163	200.618842827195	411
3	3163	200.618842827195	412
3	3163	200.618842827195	413
3	3192	202.001040517628	414
3	3192	202.001040517628	415
3	3192	202.001040517628	416
3	3212	203.746228788426	417
3	3212	203.746228788426	418
3	3212	203.746228788426	419
3	3236	205.176891147722	420
3	3236	205.176891147722	421
3	3236	205.176891147722	422
3	3256	207.07514598659	423
3	3256	207.07514598659	424
3	3256	207.07514598659	425
3	3286	208.953278725899	426
3	3286	208.953278725899	427
3	3286	208.953278725899	428
3	3309	210.686713865243	429
3	3309	210.686713865243	430
3	3309	210.686713865243	431
3	3332	211.971918579505	432
3	3332	211.971918579505	433
3	3332	211.971918579505	434
3	3350	213.909203741285	435
3	3350	213.909203741285	436
3	3350	213.909203741285	437
3	3373	215.405341994829	438
3	3373	215.405341994829	439
3	3373	215.405341994829	440
3	3401	216.640827330977	441
3	3401	216.640827330977	442
3	3401	216.640827330977	443
3	3419	218.4700602695	444
3	3419	218.4700602695	445
3	3419	218.4700602695	446
3	3445	220.279662840388	447
3	3445	220.279662840388	448
3	3445	220.279662840388	449
3	3465	221.684339383742	450
3	3465	221.684339383742	451
3	3465	221.684339383742	452
3	3488	223.437524444739	453
3	3488	223.437524444739	454
3	3488	223.437524444739	455
3	3516	224.925257982362	456
3	3516	224.925257982362	457
3	3516	224.925257982362	458
3	3539	226.104272787899	459
3	3539	226.104272787899	460
3	3539	226.104272787899	461
3	3562	227.757553311442	462
3	3562	227.757553311442	463
3	3562	227.757553311442	464
3	3580	229.668580419436	465
3	3580	229.668580419436	466
3	3580	229.668580419436	467
3	3608	230.718143297225	468
3	3608	230.718143297225	469
3	3608	230.718143297225	470
3	3631	232.003349487524	471
3	3631	232.003349487524	472
3	3631	232.003349487524	473
3	3654	233.184351824148	474
3	3654	233.184351824148	475
3	3654	233.184351824148	476
3	3677	234.848515841805	477
3	3677	234.848515841805	478
3	3677	234.848515841805	479
3	3700	236.720632696707	480
3	3700	236.720632696707	481
3	3700	236.720632696707	482
3	3720	238.388484304	483
3	3720	238.388484304	484
3	3720	238.388484304	485
4	14	0.175318540583	0
4	14	0.175318540583	1
4	14	0.175318540583	2
4	38	1.233093716434	3
4	38	1.233093716434	4
4	38	1.233093716434	5
4	54	2.871204632239	6
4	54	2.871204632239	7
4	54	2.871204632239	8
4	77	4.319958341869	9
4	77	4.319958341869	10
4	77	4.319958341869	11
4	101	5.420316745077	12
4	101	5.420316745077	13
4	101	5.420316745077	14
4	123	7.290822345492	15
4	123	7.290822345492	16
4	123	7.290822345492	17
4	146	8.976541951204	18
4	146	8.976541951204	19
4	146	8.976541951204	20
4	169	9.990814672293	21
4	169	9.990814672293	22
4	169	9.990814672293	23
4	193	11.562872388093	24
4	193	11.562872388093	25
4	193	11.562872388093	26
4	215	12.897674513762	27
4	215	12.897674513762	28
4	215	12.897674513762	29
4	238	14.739810912576	30
4	238	14.739810912576	31
4	238	14.739810912576	32
4	269	15.879919845974	33
4	269	15.879919845974	34
4	269	15.879919845974	35
4	292	17.320492749249	36
4	292	17.320492749249	37
4	292	17.320492749249	38
4	307	18.647359316248	39
4	307	18.647359316248	40
4	307	18.647359316248	41
4	336	19.970185229319	42
4	336	19.970185229319	43
4	336	19.970185229319	44
4	357	21.078335600238	45
4	357	21.078335600238	46
4	357	21.078335600238	47
4	383	22.500685331225	48
4	383	22.500685331225	49
4	383	22.500685331225	50
4	400	23.899999134438	51
4	400	23.899999134438	52
4	400	23.899999134438	53
4	422	25.379799927085	54
4	422	25.379799927085	55
4	422	25.379799927085	56
4	446	27.363091611113	57
4	446	27.363091611113	58
4	446	27.363091611113	59
4	468	28.402841132961	60
4	468	28.402841132961	61
4	468	28.402841132961	62
4	492	30.173137799226	63
4	492	30.173137799226	64
4	492	30.173137799226	65
4	522	31.272492682407	66
4	522	31.272492682407	67
4	522	31.272492682407	68
4	538	32.827783270606	69
4	538	32.827783270606	70
4	538	32.827783270606	71
4	560	33.937946318405	72
4	560	33.937946318405	73
4	560	33.937946318405	74
4	583	35.73999888596	75
4	583	35.73999888596	76
4	583	35.73999888596	77
4	606	37.246405671102	78
4	606	37.246405671102	79
4	606	37.246405671102	80
4	636	38.876031049534	81
4	636	38.876031049534	82
4	636	38.876031049534	83
4	654	39.966652629402	84
4	654	39.966652629402	85
4	654	39.966652629402	86
4	677	41.848036123856	87
4	677	41.848036123856	88
4	677	41.848036123856	89
4	699	43.134159073138	90
4	699	43.134159073138	91
4	699	43.134159073138	92
4	724	44.760051697616	93
4	724	44.760051697616	94
4	724	44.760051697616	95
4	744	45.743516191513	96
4	744	45.743516191513	97
4	744	45.743516191513	98
4	768	46.825267729262	99
4	768	46.825267729262	100
4	768	46.825267729262	101
4	792	47.972272643801	102
4	792	47.972272643801	103
4	792	47.972272643801	104
4	813	49.088203715055	105
4	813	49.088203715055	106
4	813	49.088203715055	107
4	836	50.814580616703	108
4	836	50.814580616703	109
4	836	50.814580616703	110
4	859	51.991440039866	111
4	859	51.991440039866	112
4	859	51.991440039866	113
4	882	53.344841338426	114
4	882	53.344841338426	115
4	882	53.344841338426	116
4	907	54.9683597946	117
4	907	54.9683597946	118
4	907	54.9683597946	119
4	932	56.703511509807	120
4	932	56.703511509807	121
4	932	56.703511509807	122
4	954	58.033143517006	123
4	954	58.033143517006	124
4	954	58.033143517006	125
4	975	59.226050851326	126
4	975	59.226050851326	127
4	975	59.226050851326	128
4	1005	60.340027200094	129
4	1005	60.340027200094	130
4	1005	60.340027200094	131
4	1020	61.85625528376	132
4	1020	61.85625528376	133
4	1020	61.85625528376	134
4	1049	63.711354920126	135
4	1049	63.711354920126	136
4	1049	63.711354920126	137
4	1067	64.754224121065	138
4	1067	64.754224121065	139
4	1067	64.754224121065	140
4	1091	66.045861069436	141
4	1091	66.045861069436	142
4	1091	66.045861069436	143
4	1114	67.348353114521	144
4	1114	67.348353114521	145
4	1114	67.348353114521	146
4	1143	68.830209091419	147
4	1143	68.830209091419	148
4	1143	68.830209091419	149
4	1159	70.380010091374	150
4	1159	70.380010091374	151
4	1159	70.380010091374	152
4	1183	72.172711803243	153
4	1183	72.172711803243	154
4	1183	72.172711803243	155
4	1206	73.555929633668	156
4	1206	73.555929633668	157
4	1206	73.555929633668	158
4	1228	74.775053172253	159
4	1228	74.775053172253	160
4	1228	74.775053172253	161
4	1252	76.259732351158	162
4	1252	76.259732351158	163
4	1252	76.259732351158	164
4	1274	77.765929154082	165
4	1274	77.765929154082	166
4	1274	77.765929154082	167
4	1304	78.927611425696	168
4	1304	78.927611425696	169
4	1304	78.927611425696	170
4	1331	79.961711895847	171
4	1331	79.961711895847	172
4	1331	79.961711895847	173
4	1350	81.695950604853	174
4	1350	81.695950604853	175
4	1350	81.695950604853	176
4	1377	83.55866478311	177
4	1377	83.55866478311	178
4	1377	83.55866478311	179
4	1390	85.183230987079	180
4	1390	85.183230987079	181
4	1390	85.183230987079	182
4	1411	86.475917446499	183
4	1411	86.475917446499	184
4	1411	86.475917446499	185
4	1434	88.13168440516	186
4	1434	88.13168440516	187
4	1434	88.13168440516	188
4	1465	89.317394845337	189
4	1465	89.317394845337	190
4	1465	89.317394845337	191
4	1481	91.055328149084	192
4	1481	91.055328149084	193
4	1481	91.055328149084	194
4	1504	92.994579538081	195
4	1504	92.994579538081	196
4	1504	92.994579538081	197
4	1526	94.241474258519	198
4	1526	94.241474258519	199
4	1526	94.241474258519	200
4	1550	95.804732682013	201
4	1550	95.804732682013	202
4	1550	95.804732682013	203
4	1578	97.317953905256	204
4	1578	97.317953905256	205
4	1578	97.317953905256	206
4	1597	98.493433186415	207
4	1597	98.493433186415	208
4	1597	98.493433186415	209
4	1619	100.187446830375	210
4	1619	100.187446830375	211
4	1619	100.187446830375	212
4	1641	102.077867496069	213
4	1641	102.077867496069	214
4	1641	102.077867496069	215
4	1672	103.690258598227	216
4	1672	103.690258598227	217
4	1672	103.690258598227	218
4	1696	105.27655035465	219
4	1696	105.27655035465	220
4	1696	105.27655035465	221
4	1712	107.112917491116	222
4	1712	107.112917491116	223
4	1712	107.112917491116	224
4	1733	108.422461555154	225
4	1733	108.422461555154	226
4	1733	108.422461555154	227
4	1756	110.398903370969	228
4	1756	110.398903370969	229
4	1756	110.398903370969	230
4	1779	111.595855248034	231
4	1779	111.595855248034	232
4	1779	111.595855248034	233
4	1810	113.189667487574	234
4	1810	113.189667487574	235
4	1810	113.189667487574	236
4	1833	114.762238189371	237
4	1833	114.762238189371	238
4	1833	114.762238189371	239
4	1855	116.160216456968	240
4	1855	116.160216456968	241
4	1855	116.160216456968	242
4	1873	117.437632677399	243
4	1873	117.437632677399	244
4	1873	117.437632677399	245
4	1896	119.106323022336	246
4	1896	119.106323022336	247
4	1896	119.106323022336	248
4	1929	120.640647620954	249
4	1929	120.640647620954	250
4	1929	120.640647620954	251
4	1941	122.406009994985	252
4	1941	122.406009994985	253
4	1941	122.406009994985	254
4	1964	123.928175494146	255
4	1964	123.928175494146	256
4	1964	123.928175494146	257
4	1987	125.211823214724	258
4	1987	125.211823214724	259
4	1987	125.211823214724	260
4	2009	126.955942990739	261
4	2009	126.955942990739	262
4	2009	126.955942990739	263
4	2034	128.293777009037	264
4	2034	128.293777009037	265
4	2034	128.293777009037	266
4	2057	129.458836439046	267
4	2057	129.458836439046	268
4	2057	129.458836439046	269
4	2086	130.793423249575	270
4	2086	130.793423249575	271
4	2086	130.793423249575	272
4	2103	132.059111036103	273
4	2103	132.059111036103	274
4	2103	132.059111036103	275
4	2125	134.052678501767	276
4	2125	134.052678501767	277
4	2125	134.052678501767	278
4	2148	135.118809746365	279
4	2148	135.118809746365	280
4	2148	135.118809746365	281
4	2170	136.486888847407	282
4	2170	136.486888847407	283
4	2170	136.486888847407	284
4	2197	138.416012339106	285
4	2197	138.416012339106	286
4	2197	138.416012339106	287
4	2225	140.044722535421	288
4	2225	140.044722535421	289
4	2225	140.044722535421	290
4	2240	141.194212860241	291
4	2240	141.194212860241	292
4	2240	141.194212860241	293
4	2262	143.168048588364	294
4	2262	143.168048588364	295
4	2262	143.168048588364	296
4	2285	144.344848881442	297
4	2285	144.344848881442	298
4	2285	144.344848881442	299
4	2309	145.696383854977	300
4	2309	145.696383854977	301
4	2309	145.696383854977	302
4	2332	147.445849638945	303
4	2332	147.445849638945	304
4	2332	147.445849638945	305
4	2354	148.546411496304	306
4	2354	148.546411496304	307
4	2354	148.546411496304	308
4	2377	150.284741559553	309
4	2377	150.284741559553	310
4	2377	150.284741559553	311
4	2401	151.952170524759	312
4	2401	151.952170524759	313
4	2401	151.952170524759	314
4	2424	153.914892761704	315
4	2424	153.914892761704	316
4	2424	153.914892761704	317
4	2446	155.607853593314	318
4	2446	155.607853593314	319
4	2446	155.607853593314	320
4	2473	157.154751915306	321
4	2473	157.154751915306	322
4	2473	157.154751915306	323
4	2500	158.898767603352	324
4	2500	158.898767603352	325
4	2500	158.898767603352	326
4	2516	160.674554392656	327
4	2516	160.674554392656	328
4	2516	160.674554392656	329
4	2538	162.593898171082	330
4	2538	162.593898171082	331
4	2538	162.593898171082	332
4	2564	163.7846092184	333
4	2564	163.7846092184	334
4	2564	163.7846092184	335
4	2585	165.021538630926	336
4	2585	165.021538630926	337
4	2585	165.021538630926	338
4	2608	166.352788045615	339
4	2608	166.352788045615	340
4	2608	166.352788045615	341
4	2630	167.620246653423	342
4	2630	167.620246653423	343
4	2630	167.620246653423	344
4	2662	168.660013889029	345
4	2662	168.660013889029	346
4	2662	168.660013889029	347
4	2682	170.002820066121	348
4	2682	170.002820066121	349
4	2682	170.002820066121	350
4	2700	171.626238436074	351
4	2700	171.626238436074	352
4	2700	171.626238436074	353
4	2727	173.45527287769	354
4	2727	173.45527287769	355
4	2727	173.45527287769	356
4	2746	174.593081949947	357
4	2746	174.593081949947	358
4	2746	174.593081949947	359
4	2768	176.400752376518	360
4	2768	176.400752376518	361
4	2768	176.400752376518	362
4	2791	178.269756962359	363
4	2791	178.269756962359	364
4	2791	178.269756962359	365
4	2815	179.50848408782	366
4	2815	179.50848408782	367
4	2815	179.50848408782	368
4	2839	180.694130455435	369
4	2839	180.694130455435	370
4	2839	180.694130455435	371
4	2862	182.575594264371	372
4	2862	182.575594264371	373
4	2862	182.575594264371	374
4	2885	184.476752731063	375
4	2885	184.476752731063	376
4	2885	184.476752731063	377
4	2914	186.012780609954	378
4	2914	186.012780609954	379
4	2914	186.012780609954	380
4	2930	187.711423081079	381
4	2930	187.711423081079	382
4	2930	187.711423081079	383
4	2953	189.153270509252	384
4	2953	189.153270509252	385
4	2953	189.153270509252	386
4	2975	190.171082974477	387
4	2975	190.171082974477	388
4	2975	190.171082974477	389
4	3010	191.391545669995	390
4	3010	191.391545669995	391
4	3010	191.391545669995	392
4	3023	192.719422876489	393
4	3023	192.719422876489	394
4	3023	192.719422876489	395
4	3056	193.906729182983	396
4	3056	193.906729182983	397
4	3056	193.906729182983	398
4	3067	194.92228490823	399
4	3067	194.92228490823	400
4	3067	194.92228490823	401
4	3091	196.089677462801	402
4	3091	196.089677462801	403
4	3091	196.089677462801	404
4	3113	197.379600649164	405
4	3113	197.379600649164	406
4	3113	197.379600649164	407
4	3138	198.622431732272	408
4	3138	198.622431732272	409
4	3138	198.622431732272	410
4	3159	200.604077351049	411
4	3159	200.604077351049	412
4	3159	200.604077351049	413
4	3182	201.985224174902	414
4	3182	201.985224174902	415
4	3182	201.985224174902	416
4	3205	203.721439412042	417
4	3205	203.721439412042	418
4	3205	203.721439412042	419
4	3237	205.178181989764	420
4	3237	205.178181989764	421
4	3237	205.178181989764	422
4	3251	207.063845914941	423
4	3251	207.063845914941	424
4	3251	207.063845914941	425
4	3274	208.901583483479	426
4	3274	208.901583483479	427
4	3274	208.901583483479	428
4	3299	210.669969662358	429
4	3299	210.669969662358	430
4	3299	210.669969662358	431
4	3322	211.961471331052	432
4	3322	211.961471331052	433
4	3322	211.961471331052	434
4	3343	213.898817536737	435
4	3343	213.898817536737	436
4	3343	213.898817536737	437
4	3367	215.396746283759	438
4	3367	215.396746283759	439
4	3367	215.396746283759	440
4	3395	216.624696002025	441
4	3395	216.624696002025	442
4	3395	216.624696002025	443
4	3413	218.457074823902	444
4	3413	218.457074823902	445
4	3413	218.457074823902	446
4	3436	220.25750451872	447
4	3436	220.25750451872	448
4	3436	220.25750451872	449
4	3459	221.677537856911	450
4	3459	221.677537856911	451
4	3459	221.677537856911	452
4	3484	223.42732455278	453
4	3484	223.42732455278	454
4	3484	223.42732455278	455
4	3506	224.889413224838	456
4	3506	224.889413224838	457
4	3506	224.889413224838	458
4	3528	226.079691838661	459
4	3528	226.079691838661	460
4	3528	226.079691838661	461
4	3552	227.745132820774	462
4	3552	227.745132820774	463
4	3552	227.745132820774	464
4	3573	229.653484480749	465
4	3573	229.653484480749	466
4	3573	229.653484480749	467
4	3596	230.69849407509	468
4	3596	230.69849407509	469
4	3596	230.69849407509	470
4	3619	231.972716652335	471
4	3619	231.972716652335	472
4	3619	231.972716652335	473
4	3642	233.153060117347	474
4	3642	233.153060117347	475
4	3642	233.153060117347	476
4	3667	234.836908300432	477
4	3667	234.836908300432	478
4	3667	234.836908300432	479
4	3690	236.700064990976	480
4	3690	236.700064990976	481
4	3690	236.700064990976	482
4	3713	238.37995074193	483
4	3713	238.37995074193	484
4	3713	238.37995074193	485
5	15	0.175636097543	0
5	15	0.175636097543	1
5	32	1.223157459415	2
5	32	1.223157459415	3
5	56	2.87360464633	4
5	56	2.87360464633	5
5	78	4.323519023555	6
5	78	4.323519023555	7
5	100	5.420266134899	8
5	100	5.420266134899	9
5	124	7.291870675525	10
5	124	7.291870675525	11
5	147	8.979176540811	12
5	147	8.979176540811	13
5	170	9.991304987465	14
5	170	9.991304987465	15
5	192	11.5573864281	16
5	192	11.5573864281	17
5	216	12.89932672478	18
5	216	12.89932672478	19
5	239	14.741656649168	20
5	239	14.741656649168	21
5	262	15.86271899284	22
5	262	15.86271899284	23
5	284	17.308700447492	24
5	284	17.308700447492	25
5	308	18.652659492081	26
5	308	18.652659492081	27
5	337	19.972817623457	28
5	337	19.972817623457	29
5	353	21.067343693737	30
5	353	21.067343693737	31
5	377	22.490742680437	32
5	377	22.490742680437	33
5	399	23.899680881611	34
5	399	23.899680881611	35
5	423	25.381311993419	36
5	423	25.381311993419	37
5	458	27.402590525641	38
5	458	27.402590525641	39
5	469	28.405053213607	40
5	469	28.405053213607	41
5	497	30.182312101672	42
5	497	30.182312101672	43
5	514	31.255294731597	44
5	514	31.255294731597	45
5	547	32.844181811534	46
5	547	32.844181811534	47
5	569	33.957611775639	48
5	569	33.957611775639	49
5	588	35.753758821791	50
5	588	35.753758821791	51
5	608	37.24831901945	52
5	608	37.24831901945	53
5	630	38.873103088009	54
5	630	38.873103088009	55
5	652	39.960028097752	56
5	652	39.960028097752	57
5	676	41.847872010687	58
5	676	41.847872010687	59
5	698	43.133095894758	60
5	698	43.133095894758	61
5	721	44.738954097746	62
5	721	44.738954097746	63
5	745	45.750898772138	64
5	745	45.750898772138	65
5	769	46.830359334316	66
5	769	46.830359334316	67
5	790	47.968866149521	68
5	790	47.968866149521	69
5	814	49.092685437273	70
5	814	49.092685437273	71
5	837	50.817170295726	72
5	837	50.817170295726	73
5	860	51.992072254296	74
5	860	51.992072254296	75
5	887	53.355275456696	76
5	887	53.355275456696	77
5	905	54.96076766806	78
5	905	54.96076766806	79
5	928	56.688114095771	80
5	928	56.688114095771	81
5	951	58.019455243157	82
5	951	58.019455243157	83
5	974	59.22440606159	84
5	974	59.22440606159	85
5	998	60.32780550072	86
5	998	60.32780550072	87
5	1024	61.867413343485	88
5	1024	61.867413343485	89
5	1056	63.722004708364	90
5	1056	63.722004708364	91
5	1066	64.75393130991	92
5	1066	64.75393130991	93
5	1090	66.041919074526	94
5	1090	66.041919074526	95
5	1113	67.345327949615	96
5	1113	67.345327949615	97
5	1136	68.819109879289	98
5	1136	68.819109879289	99
5	1158	70.376321414668	100
5	1158	70.376321414668	101
5	1182	72.172679847678	102
5	1182	72.172679847678	103
5	1205	73.555867317208	104
5	1205	73.555867317208	105
5	1227	74.77438642682	106
5	1227	74.77438642682	107
5	1251	76.258602629833	108
5	1251	76.258602629833	109
5	1275	77.767294335827	110
5	1275	77.767294335827	111
5	1297	78.914275584932	112
5	1297	78.914275584932	113
5	1319	79.9324910773	114
5	1319	79.9324910773	115
5	1343	81.684343362371	116
5	1343	81.684343362371	117
5	1366	83.533751378663	118
5	1366	83.533751378663	119
5	1389	85.178936224539	120
5	1389	85.178936224539	121
5	1412	86.480545008354	122
5	1412	86.480545008354	123
5	1435	88.13813585243	124
5	1435	88.13813585243	125
5	1457	89.284486862327	126
5	1457	89.284486862327	127
5	1480	91.050298295767	128
5	1480	91.050298295767	129
5	1516	93.032360560347	130
5	1516	93.032360560347	131
5	1528	94.24795736588	132
5	1528	94.24795736588	133
5	1549	95.803120409609	134
5	1549	95.803120409609	135
5	1573	97.309856054059	136
5	1573	97.309856054059	137
5	1596	98.489013913964	138
5	1596	98.489013913964	139
5	1618	100.184638335035	140
5	1618	100.184638335035	141
5	1642	102.078759163414	142
5	1642	102.078759163414	143
5	1664	103.659867033632	144
5	1664	103.659867033632	145
5	1688	105.265275644132	146
5	1688	105.265275644132	147
5	1711	107.112488535882	148
5	1711	107.112488535882	149
5	1734	108.42590248104	150
5	1734	108.42590248104	151
5	1758	110.400238006139	152
5	1758	110.400238006139	153
5	1784	111.607375885568	154
5	1784	111.607375885568	155
5	1802	113.164460023857	156
5	1802	113.164460023857	157
5	1825	114.750405522955	158
5	1825	114.750405522955	159
5	1854	116.160013724005	160
5	1854	116.160013724005	161
5	1872	117.433562207313	162
5	1872	117.433562207313	163
5	1894	119.104183841663	164
5	1894	119.104183841663	165
5	1918	120.618127183387	166
5	1918	120.618127183387	167
5	1940	122.402216820459	168
5	1940	122.402216820459	169
5	1965	123.933482693255	170
5	1965	123.933482693255	171
5	1986	125.210409599026	172
5	1986	125.210409599026	173
5	2010	126.957522173233	174
5	2010	126.957522173233	175
5	2032	128.291634643232	176
5	2032	128.291634643232	177
5	2055	129.455569123851	178
5	2055	129.455569123851	179
5	2079	130.779393371306	180
5	2079	130.779393371306	181
5	2102	132.057306160057	182
5	2102	132.057306160057	183
5	2124	134.052188955228	184
5	2124	134.052188955228	185
5	2149	135.120760126968	186
5	2149	135.120760126968	187
5	2175	136.499353172502	188
5	2175	136.499353172502	189
5	2193	138.404122804117	190
5	2193	138.404122804117	191
5	2216	140.024895823783	192
5	2216	140.024895823783	193
5	2249	141.225420507647	194
5	2249	141.225420507647	195
5	2267	143.1861701877	196
5	2267	143.1861701877	197
5	2286	144.347117076267	198
5	2286	144.347117076267	199
5	2318	145.706979172579	200
5	2318	145.706979172579	201
5	2341	147.457881789474	202
5	2341	147.457881789474	203
5	2367	148.589915062072	204
5	2367	148.589915062072	205
5	2382	150.295144096771	206
5	2382	150.295144096771	207
5	2407	151.957917510361	208
5	2407	151.957917510361	209
5	2430	153.922664448364	210
5	2430	153.922664448364	211
5	2447	155.609506322384	212
5	2447	155.609506322384	213
5	2469	157.1388545968	214
5	2469	157.1388545968	215
5	2492	158.868316299666	216
5	2492	158.868316299666	217
5	2517	160.675056524932	218
5	2517	160.675056524932	219
5	2539	162.594167985152	220
5	2539	162.594167985152	221
5	2561	163.768326119712	222
5	2561	163.768326119712	223
5	2584	165.019526067074	224
5	2584	165.019526067074	225
5	2607	166.352144843774	226
5	2607	166.352144843774	227
5	2631	167.62353335462	228
5	2631	167.62353335462	229
5	2653	168.636919009371	230
5	2653	168.636919009371	231
5	2677	169.994362285213	232
5	2677	169.994362285213	233
5	2701	171.634918926049	234
5	2701	171.634918926049	235
5	2732	173.465973975815	236
5	2732	173.465973975815	237
5	2747	174.593628208823	238
5	2747	174.593628208823	239
5	2769	176.403537981314	240
5	2769	176.403537981314	241
5	2792	178.270316710135	242
5	2792	178.270316710135	243
5	2814	179.507986213249	244
5	2814	179.507986213249	245
5	2837	180.684648686716	246
5	2837	180.684648686716	247
5	2861	182.571624661609	248
5	2861	182.571624661609	249
5	2884	184.475821611127	250
5	2884	184.475821611127	251
5	2906	185.992490556849	252
5	2906	185.992490556849	253
5	2931	187.711819463372	254
5	2931	187.711819463372	255
5	2952	189.149356785198	256
5	2952	189.149356785198	257
5	2977	190.178205466024	258
5	2977	190.178205466024	259
5	2999	191.367840035263	260
5	2999	191.367840035263	261
5	3022	192.717346018923	262
5	3022	192.717346018923	263
5	3045	193.884014897911	264
5	3045	193.884014897911	265
5	3068	194.926852389492	266
5	3068	194.926852389492	267
5	3099	196.113167209778	268
5	3099	196.113167209778	269
5	3114	197.380309169229	270
5	3114	197.380309169229	271
5	3137	198.618467890375	272
5	3137	198.618467890375	273
5	3172	200.631711052721	274
5	3172	200.631711052721	275
5	3184	201.994334249919	276
5	3184	201.994334249919	277
5	3209	203.731774019917	278
5	3209	203.731774019917	279
5	3228	205.153895828414	280
5	3228	205.153895828414	281
5	3252	207.065697476695	282
5	3252	207.065697476695	283
5	3275	208.906375239004	284
5	3275	208.906375239004	285
5	3297	210.662806746295	286
5	3297	210.662806746295	287
5	3320	211.9591763384	288
5	3320	211.9591763384	289
5	3344	213.899146341785	290
5	3344	213.899146341785	291
5	3372	215.402929391831	292
5	3372	215.402929391831	293
5	3390	216.621595487019	294
5	3390	216.621595487019	295
5	3412	218.450400277228	296
5	3412	218.450400277228	297
5	3444	220.274513769604	298
5	3444	220.274513769604	299
5	3460	221.680030397744	300
5	3460	221.680030397744	301
5	3481	223.402397088897	302
5	3481	223.402397088897	303
5	3505	224.889128525451	304
5	3505	224.889128525451	305
5	3527	226.078857416612	306
5	3527	226.078857416612	307
5	3551	227.742991939677	308
5	3551	227.742991939677	309
5	3574	229.654465529291	310
5	3574	229.654465529291	311
5	3598	230.704955716407	312
5	3598	230.704955716407	313
5	3620	231.978455399194	314
5	3620	231.978455399194	315
5	3643	233.156160153798	316
5	3643	233.156160153798	317
5	3666	234.834134466774	318
5	3666	234.834134466774	319
5	3688	236.694047319417	320
5	3688	236.694047319417	321
5	3711	238.375299971225	322
5	3711	238.375299971225	323
6	18	0.182447018919	0
6	43	1.240573477085	1
6	69	2.928499741877	2
6	92	4.353747853225	3
6	115	5.446925201134	4
6	138	7.318195516908	5
6	161	8.997295246016	6
6	184	10.016343829268	7
6	203	11.585005215102	8
6	230	12.93946917715	9
6	253	14.770341264395	10
6	276	15.945316084993	11
6	299	17.343405900473	12
6	322	18.677125128832	13
6	340	19.97806259356	14
6	368	21.103578965985	15
6	388	22.509380389228	16
6	410	23.921343836081	17
6	437	25.401461527321	18
6	457	27.393772090478	19
6	479	28.426064592264	20
6	506	30.205485324034	21
6	529	31.282662968812	22
6	550	32.847745933509	23
6	575	33.973497347117	24
6	598	35.778465767643	25
6	621	37.274555822834	26
6	641	38.88556743046	27
6	667	39.986495656739	28
6	690	41.871251180597	29
6	709	43.167111478017	30
6	732	44.801600331643	31
6	759	45.775486320568	32
6	782	46.854086935333	33
6	805	47.996865808626	34
6	824	49.112011675997	35
6	851	50.845561162991	36
6	869	52.01533744432	37
6	897	53.38736495383	38
6	920	54.991761543958	39
6	943	56.729280188586	40
6	966	58.060495227341	41
6	989	59.269355477715	42
6	1012	60.355090627977	43
6	1031	61.877968453748	44
6	1052	63.7153603288	45
6	1081	64.810835233577	46
6	1104	66.059350287282	47
6	1127	67.373415934263	48
6	1150	68.861067586711	49
6	1173	70.410606024127	50
6	1196	72.196069583126	51
6	1219	73.591190793597	52
6	1242	74.808424798486	53
6	1265	76.274228564914	54
6	1288	77.798064590426	55
6	1311	78.941823137253	56
6	1330	79.957668546711	57
6	1357	81.709163878743	58
6	1376	83.54946059332	59
6	1403	85.21020702798	60
6	1426	86.502635914229	61
6	1445	88.156233556758	62
6	1472	89.341018171151	63
6	1495	91.099623664759	64
6	1515	93.014236355112	65
6	1541	94.262620500103	66
6	1564	95.854677540797	67
6	1587	97.327959130414	68
6	1610	98.519466189635	69
6	1633	100.210307742639	70
6	1656	102.124890749303	71
6	1679	103.70272902595	72
6	1699	105.284672275667	73
6	1725	107.164510086	74
6	1748	108.450321091435	75
6	1771	110.466507467659	76
6	1794	111.619637678065	77
6	1817	113.245423652382	78
6	1840	114.787627514576	79
6	1858	116.168549891288	80
6	1886	117.451063191069	81
6	1909	119.12904855775	82
6	1928	120.635261079484	83
6	1951	122.428142366117	84
6	1978	123.982807917154	85
6	1996	125.236454657592	86
6	2020	126.983624215927	87
6	2047	128.322089059357	88
6	2070	129.496522573111	89
6	2093	130.808418130466	90
6	2116	132.093587355424	91
6	2139	134.088966298981	92
6	2162	135.143014149883	93
6	2185	136.510202419654	94
6	2208	138.433934435142	95
6	2228	140.048574199503	96
6	2252	141.234051078829	97
6	2277	143.197588562356	98
6	2300	144.365794901112	99
6	2321	145.715894609274	100
6	2344	147.467052771878	101
6	2362	148.578051094236	102
6	2392	150.321779112557	103
6	2413	151.963785048628	104
6	2436	153.931865060808	105
6	2456	155.631335566815	106
6	2484	157.16879480939	107
6	2507	158.920615260178	108
6	2530	160.706082895324	109
6	2553	162.623966017158	110
6	2576	163.830276524244	111
6	2599	165.051364389425	112
6	2622	166.378751095588	113
6	2645	167.649676260336	114
6	2665	168.66851144806	115
6	2691	170.014528737866	116
6	2714	171.655157799629	117
6	2735	173.466342164332	118
6	2760	174.624340659003	119
6	2779	176.423960301788	120
6	2806	178.300810921178	121
6	2829	179.529379543115	122
6	2852	180.707897544493	123
6	2875	182.594887776878	124
6	2898	184.508641231841	125
6	2921	186.036178686473	126
6	2944	187.725015155832	127
6	2967	189.174650705902	128
6	2990	190.200905403898	129
6	3009	191.387733412746	130
6	3036	192.738191145456	131
6	3055	193.902856888477	132
6	3082	194.953785757126	133
6	3105	196.132219451969	134
6	3128	197.40388442938	135
6	3151	198.646203410766	136
6	3167	200.628842827195	137
6	3197	202.011040517628	138
6	3216	203.756228788426	139
6	3240	205.186891147722	140
6	3261	207.08514598659	141
6	3289	208.963278725899	142
6	3312	210.696713865243	143
6	3335	211.981918579505	144
6	3354	213.919203741285	145
6	3381	215.415341994829	146
6	3404	216.650827330977	147
6	3423	218.4800602695	148
6	3450	220.289662840388	149
6	3473	221.694339383742	150
6	3492	223.447524444739	151
6	3519	224.935257982362	152
6	3542	226.114272787899	153
6	3565	227.767553311442	154
6	3584	229.678580419436	155
6	3611	230.728143297225	156
6	3634	232.013349487524	157
6	3657	233.194351824148	158
6	3680	234.858515841805	159
6	3703	236.730632696707	160
6	3726	238.398484304	161

