version 2
run General-0-20231008-06:53:06-16467
attr configname General
attr datetime 20231008-06:53:06
attr experiment General
attr inifile omnetpp.ini
attr iterationvars ""
attr iterationvarsf ""
attr measurement ""
attr network Network2
attr processid 16467
attr repetition 0
attr replication #0
attr resultdir results
attr runnumber 0
attr seedset 0
param Network2.node[*].transmissionTime "uniform(1s, 2s)"
param Network2.node[*].delayTime "uniform(0.01s, 0.2s)"
param Network2.node[*].processingTime exponential(0.01s)
param Network2.node[*].lossProbability 0.0

vector 0 Network2.node[0] txVector ETV
vector 1 Network2.node[1] txVector ETV
vector 2 Network2.node[3] txVector ETV
vector 3 Network2.node[2] txVector ETV
vector 4 Network2.node[6] txVector ETV
vector 5 Network2.node[4] txVector ETV
vector 6 Network2.node[5] rxVector ETV
0	1	0.114274565438	0
0	24	1.707119181827	1
0	47	3.275163745582	2
0	70	4.954043279244	3
0	93	6.571678780094	4
0	116	7.929830950294	5
0	139	9.396141723106	6
0	162	11.368086722056	7
0	185	12.782349710428	8
0	208	14.429523849004	9
0	231	15.678276988753	10
0	254	17.35371606595	11
0	277	18.655290882179	12
0	300	19.976288125926	13
0	323	21.125736430596	14
0	346	22.545811798267	15
0	369	23.564333592385	16
0	392	24.831596126391	17
0	415	26.05901075558	18
0	438	27.736092331896	19
0	461	29.567140789546	20
0	484	30.880833186984	21
0	507	32.398212298129	22
0	530	33.490808456747	23
0	553	35.275961367024	24
0	576	36.99152251946	25
0	599	38.488913887024	26
0	622	40.277786661016	27
0	645	41.424733302633	28
0	668	42.901210506524	29
0	691	44.67990590337	30
0	714	46.149404208719	31
0	737	47.278264776415	32
0	760	48.704570654391	33
0	783	50.562293297921	34
0	806	52.009671597353	35
0	829	53.954973130797	36
0	852	55.535124850304	37
0	875	57.524534625079	38
0	898	59.347094071874	39
0	921	61.252042414	40
0	944	62.384857414135	41
0	967	64.018855109423	42
0	990	65.714932277876	43
0	1013	66.986585047639	44
0	1036	68.15516145279	45
0	1059	69.831403931215	46
0	1082	70.98503147283	47
0	1105	72.632228124732	48
0	1128	74.623369778585	49
0	1151	76.126090542259	50
0	1174	78.032444775416	51
0	1197	79.092389074	52
0	1220	80.097578693958	53
0	1243	81.554098585932	54
0	1266	83.491733808149	55
0	1289	85.01373007785	56
0	1312	86.22526398146	57
0	1335	87.695884882784	58
0	1358	89.552640130356	59
0	1381	90.9576757409	60
0	1404	92.848990092366	61
0	1427	93.929522095094	62
0	1450	95.826799172055	63
0	1473	97.705171665022	64
0	1496	98.802665050685	65
0	1519	100.769055019676	66
0	1542	102.344267486672	67
0	1565	103.589156966035	68
0	1588	104.668126869791	69
0	1611	106.644010739944	70
0	1634	108.181246391342	71
0	1657	109.584272394267	72
0	1680	110.741494493869	73
0	1703	112.159603703146	74
0	1726	114.031906213922	75
0	1749	115.371537262419	76
0	1772	116.575609321085	77
0	1795	118.346482076527	78
0	1818	120.109647081777	79
0	1841	121.225545553801	80
0	1864	122.785319782871	81
0	1887	124.118391812391	82
0	1910	125.84945702514	83
0	1933	127.194962684376	84
0	1956	128.686163726806	85
0	1979	129.990337283661	86
0	2002	131.405369901409	87
0	2025	132.415433595733	88
0	2048	134.210421378802	89
0	2071	135.988697544749	90
0	2094	137.276998098784	91
0	2117	139.130244078425	92
0	2140	140.611619307737	93
0	2163	141.612283523272	94
0	2186	143.110671626249	95
0	2209	144.995693479743	96
0	2232	146.769403879609	97
0	2255	148.291466293935	98
0	2278	149.566891557616	99
0	2301	151.35865297968	100
0	2324	152.722134740636	101
0	2347	154.148137129922	102
0	2370	155.887644899855	103
0	2393	157.255120223001	104
0	2416	158.832533425963	105
0	2439	159.93114379289	106
0	2462	161.882099649714	107
0	2485	162.986835760608	108
0	2508	164.596372476857	109
0	2531	166.19468845039	110
0	2554	168.125116833796	111
0	2577	169.42576799596	112
0	2600	170.776155015997	113
0	2623	172.643269552927	114
0	2646	174.28646832852	115
0	2669	175.628572202598	116
0	2692	176.849901958446	117
0	2715	178.018828071498	118
0	2738	179.116487722921	119
0	2761	180.776458272322	120
0	2784	181.8156805761	121
0	2807	183.133709211678	122
0	2830	184.92801488152	123
0	2853	185.988092842123	124
0	2876	187.39251515859	125
0	2899	189.277279980324	126
0	2922	190.830595223076	127
0	2945	192.732726443867	128
0	2968	193.890007859404	129
0	2991	195.557176682475	130
0	3014	197.316666782909	131
0	3037	198.867660747451	132
0	3060	200.727385297028	133
0	3083	201.83247999319	134
0	3106	203.476476938074	135
0	3129	204.890933472041	136
0	3152	206.365818348324	137
0	3175	207.623640043272	138
0	3198	208.92500061433	139
0	3221	210.071584353998	140
0	3244	211.805347014062	141
0	3267	213.311878698256	142
0	3290	214.355594376644	143
0	3313	216.31611676871	144
0	3336	217.558129977511	145
0	3359	218.650981186965	146
0	3382	220.036272748217	147
0	3405	221.180331295898	148
0	3428	222.898183967529	149
0	3451	224.053024673678	150
0	3474	225.978871745832	151
0	3497	227.80460993278	152
0	3520	229.241142322851	153
0	3543	230.514491058729	154
0	3566	231.914076407749	155
0	3589	232.98667646859	156
0	3612	234.949084458483	157
0	3635	236.451593854773	158
0	3658	237.917325411533	159
0	3681	239.400826065644	160
1	3	0.142870607559	0
1	3	0.142870607559	1
1	3	0.142870607559	2
1	3	0.142870607559	3
1	26	1.743101722685	4
1	26	1.743101722685	5
1	26	1.743101722685	6
1	26	1.743101722685	7
1	49	3.297916022604	8
1	49	3.297916022604	9
1	49	3.297916022604	10
1	49	3.297916022604	11
1	72	4.973513246016	12
1	72	4.973513246016	13
1	72	4.973513246016	14
1	72	4.973513246016	15
1	95	6.595569206992	16
1	95	6.595569206992	17
1	95	6.595569206992	18
1	95	6.595569206992	19
1	118	7.942633720379	20
1	118	7.942633720379	21
1	118	7.942633720379	22
1	118	7.942633720379	23
1	141	9.427194936114	24
1	141	9.427194936114	25
1	141	9.427194936114	26
1	141	9.427194936114	27
1	164	11.378749696071	28
1	164	11.378749696071	29
1	164	11.378749696071	30
1	164	11.378749696071	31
1	187	12.810762535143	32
1	187	12.810762535143	33
1	187	12.810762535143	34
1	187	12.810762535143	35
1	210	14.448107778682	36
1	210	14.448107778682	37
1	210	14.448107778682	38
1	210	14.448107778682	39
1	233	15.691151093514	40
1	233	15.691151093514	41
1	233	15.691151093514	42
1	233	15.691151093514	43
1	256	17.374509267937	44
1	256	17.374509267937	45
1	256	17.374509267937	46
1	256	17.374509267937	47
1	279	18.667791697129	48
1	279	18.667791697129	49
1	279	18.667791697129	50
1	279	18.667791697129	51
1	302	20.006547214097	52
1	302	20.006547214097	53
1	302	20.006547214097	54
1	302	20.006547214097	55
1	325	21.136255556118	56
1	325	21.136255556118	57
1	325	21.136255556118	58
1	325	21.136255556118	59
1	348	22.571595925488	60
1	348	22.571595925488	61
1	348	22.571595925488	62
1	348	22.571595925488	63
1	371	23.585699557338	64
1	371	23.585699557338	65
1	371	23.585699557338	66
1	371	23.585699557338	67
1	394	24.84453120291	68
1	394	24.84453120291	69
1	394	24.84453120291	70
1	394	24.84453120291	71
1	417	26.078351358906	72
1	417	26.078351358906	73
1	417	26.078351358906	74
1	417	26.078351358906	75
1	440	27.756007374825	76
1	440	27.756007374825	77
1	440	27.756007374825	78
1	440	27.756007374825	79
1	463	29.60871174496	80
1	463	29.60871174496	81
1	463	29.60871174496	82
1	463	29.60871174496	83
1	486	30.892249607332	84
1	486	30.892249607332	85
1	486	30.892249607332	86
1	486	30.892249607332	87
1	509	32.410664279055	88
1	509	32.410664279055	89
1	509	32.410664279055	90
1	509	32.410664279055	91
1	532	33.504117555559	92
1	532	33.504117555559	93
1	532	33.504117555559	94
1	532	33.504117555559	95
1	555	35.29261979189	96
1	555	35.29261979189	97
1	555	35.29261979189	98
1	555	35.29261979189	99
1	578	37.01172439034	100
1	578	37.01172439034	101
1	578	37.01172439034	102
1	578	37.01172439034	103
1	601	38.504213502817	104
1	601	38.504213502817	105
1	601	38.504213502817	106
1	601	38.504213502817	107
1	624	40.288615283745	108
1	624	40.288615283745	109
1	624	40.288615283745	110
1	624	40.288615283745	111
1	647	41.441426331353	112
1	647	41.441426331353	113
1	647	41.441426331353	114
1	647	41.441426331353	115
1	670	42.926234634461	116
1	670	42.926234634461	117
1	670	42.926234634461	118
1	670	42.926234634461	119
1	693	44.711336900374	120
1	693	44.711336900374	121
1	693	44.711336900374	122
1	693	44.711336900374	123
1	716	46.164391132048	124
1	716	46.164391132048	125
1	716	46.164391132048	126
1	716	46.164391132048	127
1	739	47.294674511868	128
1	739	47.294674511868	129
1	739	47.294674511868	130
1	739	47.294674511868	131
1	762	48.720681230004	132
1	762	48.720681230004	133
1	762	48.720681230004	134
1	762	48.720681230004	135
1	785	50.585301672196	136
1	785	50.585301672196	137
1	785	50.585301672196	138
1	785	50.585301672196	139
1	808	52.040034539226	140
1	808	52.040034539226	141
1	808	52.040034539226	142
1	808	52.040034539226	143
1	831	53.979717353045	144
1	831	53.979717353045	145
1	831	53.979717353045	146
1	831	53.979717353045	147
1	854	55.545800191873	148
1	854	55.545800191873	149
1	854	55.545800191873	150
1	854	55.545800191873	151
1	877	57.547937384699	152
1	877	57.547937384699	153
1	877	57.547937384699	154
1	877	57.547937384699	155
1	900	59.360611745728	156
1	900	59.360611745728	157
1	900	59.360611745728	158
1	900	59.360611745728	159
1	923	61.266730370916	160
1	923	61.266730370916	161
1	923	61.266730370916	162
1	923	61.266730370916	163
1	946	62.415053259167	164
1	946	62.415053259167	165
1	946	62.415053259167	166
1	946	62.415053259167	167
1	969	64.033608506119	168
1	969	64.033608506119	169
1	969	64.033608506119	170
1	969	64.033608506119	171
1	992	65.731010125517	172
1	992	65.731010125517	173
1	992	65.731010125517	174
1	992	65.731010125517	175
1	1015	67.019760308265	176
1	1015	67.019760308265	177
1	1015	67.019760308265	178
1	1015	67.019760308265	179
1	1038	68.186300520936	180
1	1038	68.186300520936	181
1	1038	68.186300520936	182
1	1038	68.186300520936	183
1	1061	69.846946615949	184
1	1061	69.846946615949	185
1	1061	69.846946615949	186
1	1061	69.846946615949	187
1	1084	71.004204190799	188
1	1084	71.004204190799	189
1	1084	71.004204190799	190
1	1084	71.004204190799	191
1	1107	72.647058654975	192
1	1107	72.647058654975	193
1	1107	72.647058654975	194
1	1107	72.647058654975	195
1	1130	74.658924955752	196
1	1130	74.658924955752	197
1	1130	74.658924955752	198
1	1130	74.658924955752	199
1	1153	76.144768093688	200
1	1153	76.144768093688	201
1	1153	76.144768093688	202
1	1153	76.144768093688	203
1	1176	78.043075009859	204
1	1176	78.043075009859	205
1	1176	78.043075009859	206
1	1176	78.043075009859	207
1	1199	79.13752886223	208
1	1199	79.13752886223	209
1	1199	79.13752886223	210
1	1199	79.13752886223	211
1	1222	80.111695699737	212
1	1222	80.111695699737	213
1	1222	80.111695699737	214
1	1222	80.111695699737	215
1	1245	81.575247254473	216
1	1245	81.575247254473	217
1	1245	81.575247254473	218
1	1245	81.575247254473	219
1	1268	83.516565542229	220
1	1268	83.516565542229	221
1	1268	83.516565542229	222
1	1268	83.516565542229	223
1	1291	85.038211539089	224
1	1291	85.038211539089	225
1	1291	85.038211539089	226
1	1291	85.038211539089	227
1	1314	86.236495086009	228
1	1314	86.236495086009	229
1	1314	86.236495086009	230
1	1314	86.236495086009	231
1	1337	87.710987596762	232
1	1337	87.710987596762	233
1	1337	87.710987596762	234
1	1337	87.710987596762	235
1	1360	89.567838349805	236
1	1360	89.567838349805	237
1	1360	89.567838349805	238
1	1360	89.567838349805	239
1	1383	90.967687823919	240
1	1383	90.967687823919	241
1	1383	90.967687823919	242
1	1383	90.967687823919	243
1	1406	92.859881803189	244
1	1406	92.859881803189	245
1	1406	92.859881803189	246
1	1406	92.859881803189	247
1	1429	93.943559624165	248
1	1429	93.943559624165	249
1	1429	93.943559624165	250
1	1429	93.943559624165	251
1	1452	95.848536349334	252
1	1452	95.848536349334	253
1	1452	95.848536349334	254
1	1452	95.848536349334	255
1	1475	97.734267215207	256
1	1475	97.734267215207	257
1	1475	97.734267215207	258
1	1475	97.734267215207	259
1	1498	98.819750411439	260
1	1498	98.819750411439	261
1	1498	98.819750411439	262
1	1498	98.819750411439	263
1	1521	100.789374226705	264
1	1521	100.789374226705	265
1	1521	100.789374226705	266
1	1521	100.789374226705	267
1	1544	102.356706783371	268
1	1544	102.356706783371	269
1	1544	102.356706783371	270
1	1544	102.356706783371	271
1	1567	103.612135331726	272
1	1567	103.612135331726	273
1	1567	103.612135331726	274
1	1567	103.612135331726	275
1	1590	104.70509221833	276
1	1590	104.70509221833	277
1	1590	104.70509221833	278
1	1590	104.70509221833	279
1	1613	106.660091056202	280
1	1613	106.660091056202	281
1	1613	106.660091056202	282
1	1613	106.660091056202	283
1	1636	108.204920448532	284
1	1636	108.204920448532	285
1	1636	108.204920448532	286
1	1636	108.204920448532	287
1	1659	109.59845998779	288
1	1659	109.59845998779	289
1	1659	109.59845998779	290
1	1659	109.59845998779	291
1	1682	110.753393411444	292
1	1682	110.753393411444	293
1	1682	110.753393411444	294
1	1682	110.753393411444	295
1	1705	112.171307476733	296
1	1705	112.171307476733	297
1	1705	112.171307476733	298
1	1705	112.171307476733	299
1	1728	114.051074444295	300
1	1728	114.051074444295	301
1	1728	114.051074444295	302
1	1728	114.051074444295	303
1	1751	115.39745308355	304
1	1751	115.39745308355	305
1	1751	115.39745308355	306
1	1751	115.39745308355	307
1	1774	116.598923364589	308
1	1774	116.598923364589	309
1	1774	116.598923364589	310
1	1774	116.598923364589	311
1	1797	118.360214273811	312
1	1797	118.360214273811	313
1	1797	118.360214273811	314
1	1797	118.360214273811	315
1	1820	120.142659615437	316
1	1820	120.142659615437	317
1	1820	120.142659615437	318
1	1820	120.142659615437	319
1	1843	121.243861983328	320
1	1843	121.243861983328	321
1	1843	121.243861983328	322
1	1843	121.243861983328	323
1	1866	122.7963704212	324
1	1866	122.7963704212	325
1	1866	122.7963704212	326
1	1866	122.7963704212	327
1	1889	124.166342135728	328
1	1889	124.166342135728	329
1	1889	124.166342135728	330
1	1889	124.166342135728	331
1	1912	125.865997460765	332
1	1912	125.865997460765	333
1	1912	125.865997460765	334
1	1912	125.865997460765	335
1	1935	127.205713696085	336
1	1935	127.205713696085	337
1	1935	127.205713696085	338
1	1935	127.205713696085	339
1	1958	128.705105726708	340
1	1958	128.705105726708	341
1	1958	128.705105726708	342
1	1958	128.705105726708	343
1	1981	130.000663090197	344
1	1981	130.000663090197	345
1	1981	130.000663090197	346
1	1981	130.000663090197	347
1	2004	131.421829220945	348
1	2004	131.421829220945	349
1	2004	131.421829220945	350
1	2004	131.421829220945	351
1	2027	132.425762508431	352
1	2027	132.425762508431	353
1	2027	132.425762508431	354
1	2027	132.425762508431	355
1	2050	134.239282867071	356
1	2050	134.239282867071	357
1	2050	134.239282867071	358
1	2050	134.239282867071	359
1	2073	136.024104979121	360
1	2073	136.024104979121	361
1	2073	136.024104979121	362
1	2073	136.024104979121	363
1	2096	137.293447857161	364
1	2096	137.293447857161	365
1	2096	137.293447857161	366
1	2096	137.293447857161	367
1	2119	139.141206193367	368
1	2119	139.141206193367	369
1	2119	139.141206193367	370
1	2119	139.141206193367	371
1	2142	140.650035317295	372
1	2142	140.650035317295	373
1	2142	140.650035317295	374
1	2142	140.650035317295	375
1	2165	141.625075683655	376
1	2165	141.625075683655	377
1	2165	141.625075683655	378
1	2165	141.625075683655	379
1	2188	143.121728029005	380
1	2188	143.121728029005	381
1	2188	143.121728029005	382
1	2188	143.121728029005	383
1	2211	145.027219507939	384
1	2211	145.027219507939	385
1	2211	145.027219507939	386
1	2211	145.027219507939	387
1	2234	146.779761810193	388
1	2234	146.779761810193	389
1	2234	146.779761810193	390
1	2234	146.779761810193	391
1	2257	148.306062724215	392
1	2257	148.306062724215	393
1	2257	148.306062724215	394
1	2257	148.306062724215	395
1	2280	149.57803630491	396
1	2280	149.57803630491	397
1	2280	149.57803630491	398
1	2280	149.57803630491	399
1	2303	151.370389298418	400
1	2303	151.370389298418	401
1	2303	151.370389298418	402
1	2303	151.370389298418	403
1	2326	152.754456675062	404
1	2326	152.754456675062	405
1	2326	152.754456675062	406
1	2326	152.754456675062	407
1	2349	154.170309925016	408
1	2349	154.170309925016	409
1	2349	154.170309925016	410
1	2349	154.170309925016	411
1	2372	155.909916352431	412
1	2372	155.909916352431	413
1	2372	155.909916352431	414
1	2372	155.909916352431	415
1	2395	157.28014301708	416
1	2395	157.28014301708	417
1	2395	157.28014301708	418
1	2395	157.28014301708	419
1	2418	158.858681693908	420
1	2418	158.858681693908	421
1	2418	158.858681693908	422
1	2418	158.858681693908	423
1	2441	159.948368779577	424
1	2441	159.948368779577	425
1	2441	159.948368779577	426
1	2441	159.948368779577	427
1	2464	161.89333895305	428
1	2464	161.89333895305	429
1	2464	161.89333895305	430
1	2464	161.89333895305	431
1	2487	162.999079085132	432
1	2487	162.999079085132	433
1	2487	162.999079085132	434
1	2487	162.999079085132	435
1	2510	164.607638510663	436
1	2510	164.607638510663	437
1	2510	164.607638510663	438
1	2510	164.607638510663	439
1	2533	166.215000392197	440
1	2533	166.215000392197	441
1	2533	166.215000392197	442
1	2533	166.215000392197	443
1	2556	168.151251222857	444
1	2556	168.151251222857	445
1	2556	168.151251222857	446
1	2556	168.151251222857	447
1	2579	169.442116659827	448
1	2579	169.442116659827	449
1	2579	169.442116659827	450
1	2579	169.442116659827	451
1	2602	170.789640187112	452
1	2602	170.789640187112	453
1	2602	170.789640187112	454
1	2602	170.789640187112	455
1	2625	172.661719105356	456
1	2625	172.661719105356	457
1	2625	172.661719105356	458
1	2625	172.661719105356	459
1	2648	174.313811070374	460
1	2648	174.313811070374	461
1	2648	174.313811070374	462
1	2648	174.313811070374	463
1	2671	175.64121597997	464
1	2671	175.64121597997	465
1	2671	175.64121597997	466
1	2671	175.64121597997	467
1	2694	176.864587007974	468
1	2694	176.864587007974	469
1	2694	176.864587007974	470
1	2694	176.864587007974	471
1	2717	178.030077941149	472
1	2717	178.030077941149	473
1	2717	178.030077941149	474
1	2717	178.030077941149	475
1	2740	179.135168393804	476
1	2740	179.135168393804	477
1	2740	179.135168393804	478
1	2740	179.135168393804	479
1	2763	180.792082016492	480
1	2763	180.792082016492	481
1	2763	180.792082016492	482
1	2763	180.792082016492	483
1	2786	181.857397440003	484
1	2786	181.857397440003	485
1	2786	181.857397440003	486
1	2786	181.857397440003	487
1	2809	183.169517937066	488
1	2809	183.169517937066	489
1	2809	183.169517937066	490
1	2809	183.169517937066	491
1	2832	184.940370338819	492
1	2832	184.940370338819	493
1	2832	184.940370338819	494
1	2832	184.940370338819	495
1	2855	185.998766196886	496
1	2855	185.998766196886	497
1	2855	185.998766196886	498
1	2855	185.998766196886	499
1	2878	187.414621024564	500
1	2878	187.414621024564	501
1	2878	187.414621024564	502
1	2878	187.414621024564	503
1	2901	189.295875699372	504
1	2901	189.295875699372	505
1	2901	189.295875699372	506
1	2901	189.295875699372	507
1	2924	190.846733462064	508
1	2924	190.846733462064	509
1	2924	190.846733462064	510
1	2924	190.846733462064	511
1	2947	192.743111400216	512
1	2947	192.743111400216	513
1	2947	192.743111400216	514
1	2947	192.743111400216	515
1	2970	193.933306051119	516
1	2970	193.933306051119	517
1	2970	193.933306051119	518
1	2970	193.933306051119	519
1	2993	195.568520083052	520
1	2993	195.568520083052	521
1	2993	195.568520083052	522
1	2993	195.568520083052	523
1	3016	197.366023007067	524
1	3016	197.366023007067	525
1	3016	197.366023007067	526
1	3016	197.366023007067	527
1	3039	198.890235264028	528
1	3039	198.890235264028	529
1	3039	198.890235264028	530
1	3039	198.890235264028	531
1	3062	200.777883150389	532
1	3062	200.777883150389	533
1	3062	200.777883150389	534
1	3062	200.777883150389	535
1	3085	201.846328087375	536
1	3085	201.846328087375	537
1	3085	201.846328087375	538
1	3085	201.846328087375	539
1	3108	203.487840851564	540
1	3108	203.487840851564	541
1	3108	203.487840851564	542
1	3108	203.487840851564	543
1	3131	204.906658408328	544
1	3131	204.906658408328	545
1	3131	204.906658408328	546
1	3131	204.906658408328	547
1	3154	206.389298512081	548
1	3154	206.389298512081	549
1	3154	206.389298512081	550
1	3154	206.389298512081	551
1	3177	207.642995562797	552
1	3177	207.642995562797	553
1	3177	207.642995562797	554
1	3177	207.642995562797	555
1	3200	208.960154809563	556
1	3200	208.960154809563	557
1	3200	208.960154809563	558
1	3200	208.960154809563	559
1	3223	210.083171297018	560
1	3223	210.083171297018	561
1	3223	210.083171297018	562
1	3223	210.083171297018	563
1	3246	211.825274985872	564
1	3246	211.825274985872	565
1	3246	211.825274985872	566
1	3246	211.825274985872	567
1	3269	213.330941748483	568
1	3269	213.330941748483	569
1	3269	213.330941748483	570
1	3269	213.330941748483	571
1	3292	214.381636550436	572
1	3292	214.381636550436	573
1	3292	214.381636550436	574
1	3292	214.381636550436	575
1	3315	216.328997561712	576
1	3315	216.328997561712	577
1	3315	216.328997561712	578
1	3315	216.328997561712	579
1	3338	217.569951698053	580
1	3338	217.569951698053	581
1	3338	217.569951698053	582
1	3338	217.569951698053	583
1	3361	218.666467779955	584
1	3361	218.666467779955	585
1	3361	218.666467779955	586
1	3361	218.666467779955	587
1	3384	220.069263830236	588
1	3384	220.069263830236	589
1	3384	220.069263830236	590
1	3384	220.069263830236	591
1	3407	221.1932054897	592
1	3407	221.1932054897	593
1	3407	221.1932054897	594
1	3407	221.1932054897	595
1	3430	222.910467341131	596
1	3430	222.910467341131	597
1	3430	222.910467341131	598
1	3430	222.910467341131	599
1	3453	224.065777253978	600
1	3453	224.065777253978	601
1	3453	224.065777253978	602
1	3453	224.065777253978	603
1	3476	226.005932454497	604
1	3476	226.005932454497	605
1	3476	226.005932454497	606
1	3476	226.005932454497	607
1	3499	227.81656202101	608
1	3499	227.81656202101	609
1	3499	227.81656202101	610
1	3499	227.81656202101	611
1	3522	229.272957645385	612
1	3522	229.272957645385	613
1	3522	229.272957645385	614
1	3522	229.272957645385	615
1	3545	230.536743961312	616
1	3545	230.536743961312	617
1	3545	230.536743961312	618
1	3545	230.536743961312	619
1	3568	231.93862939282	620
1	3568	231.93862939282	621
1	3568	231.93862939282	622
1	3568	231.93862939282	623
1	3591	233.013495206344	624
1	3591	233.013495206344	625
1	3591	233.013495206344	626
1	3591	233.013495206344	627
1	3614	234.959372187793	628
1	3614	234.959372187793	629
1	3614	234.959372187793	630
1	3614	234.959372187793	631
1	3637	236.471446926021	632
1	3637	236.471446926021	633
1	3637	236.471446926021	634
1	3637	236.471446926021	635
1	3660	237.931089743781	636
1	3660	237.931089743781	637
1	3660	237.931089743781	638
1	3660	237.931089743781	639
1	3683	239.427410581243	640
1	3683	239.427410581243	641
1	3683	239.427410581243	642
1	3683	239.427410581243	643
2	8	0.158381092426	0
2	8	0.158381092426	1
2	8	0.158381092426	2
2	33	1.763547847768	3
2	33	1.763547847768	4
2	33	1.763547847768	5
2	66	3.336860227384	6
2	66	3.336860227384	7
2	66	3.336860227384	8
2	85	5.006802379758	9
2	85	5.006802379758	10
2	85	5.006802379758	11
2	102	6.614013484927	12
2	102	6.614013484927	13
2	102	6.614013484927	14
2	125	7.963865403394	15
2	125	7.963865403394	16
2	125	7.963865403394	17
2	146	9.446479721083	18
2	146	9.446479721083	19
2	146	9.446479721083	20
2	178	11.408782101296	21
2	178	11.408782101296	22
2	178	11.408782101296	23
2	194	12.829593825563	24
2	194	12.829593825563	25
2	194	12.829593825563	26
2	215	14.468294365982	27
2	215	14.468294365982	28
2	215	14.468294365982	29
2	238	15.71294492285	30
2	238	15.71294492285	31
2	238	15.71294492285	32
2	262	17.398339060002	33
2	262	17.398339060002	34
2	262	17.398339060002	35
2	285	18.683516312643	36
2	285	18.683516312643	37
2	285	18.683516312643	38
2	307	20.018372600116	39
2	307	20.018372600116	40
2	307	20.018372600116	41
2	333	21.165621328493	42
2	333	21.165621328493	43
2	333	21.165621328493	44
2	357	22.610441368372	45
2	357	22.610441368372	46
2	357	22.610441368372	47
2	378	23.608797411052	48
2	378	23.608797411052	49
2	378	23.608797411052	50
2	400	24.861222340147	51
2	400	24.861222340147	52
2	400	24.861222340147	53
2	422	26.090796269126	54
2	422	26.090796269126	55
2	422	26.090796269126	56
2	446	27.771549083115	57
2	446	27.771549083115	58
2	446	27.771549083115	59
2	469	29.621036995144	60
2	469	29.621036995144	61
2	469	29.621036995144	62
2	491	30.908469976523	63
2	491	30.908469976523	64
2	491	30.908469976523	65
2	515	32.429446429842	66
2	515	32.429446429842	67
2	515	32.429446429842	68
2	538	33.52130002036	69
2	538	33.52130002036	70
2	538	33.52130002036	71
2	560	35.306087324928	72
2	560	35.306087324928	73
2	560	35.306087324928	74
2	585	37.02731446704	75
2	585	37.02731446704	76
2	585	37.02731446704	77
2	606	38.515059297735	78
2	606	38.515059297735	79
2	606	38.515059297735	80
2	633	40.315244941552	81
2	633	40.315244941552	82
2	633	40.315244941552	83
2	653	41.46292374523	84
2	653	41.46292374523	85
2	653	41.46292374523	86
2	676	42.936958825562	87
2	676	42.936958825562	88
2	676	42.936958825562	89
2	707	44.75338498867	90
2	707	44.75338498867	91
2	707	44.75338498867	92
2	721	46.175777000262	93
2	721	46.175777000262	94
2	721	46.175777000262	95
2	750	47.318812345163	96
2	750	47.318812345163	97
2	750	47.318812345163	98
2	775	48.750560624552	99
2	775	48.750560624552	100
2	775	48.750560624552	101
2	802	50.627239290923	102
2	802	50.627239290923	103
2	802	50.627239290923	104
2	814	52.050939613927	105
2	814	52.050939613927	106
2	814	52.050939613927	107
2	837	53.990944503118	108
2	837	53.990944503118	109
2	837	53.990944503118	110
2	859	55.556530708445	111
2	859	55.556530708445	112
2	859	55.556530708445	113
2	888	57.575578258621	114
2	888	57.575578258621	115
2	888	57.575578258621	116
2	905	59.373202868287	117
2	905	59.373202868287	118
2	905	59.373202868287	119
2	929	61.279445928833	120
2	929	61.279445928833	121
2	929	61.279445928833	122
2	951	62.425302540124	123
2	951	62.425302540124	124
2	951	62.425302540124	125
2	980	64.066183274027	126
2	980	64.066183274027	127
2	980	64.066183274027	128
2	1003	65.762906592663	129
2	1003	65.762906592663	130
2	1003	65.762906592663	131
2	1020	67.030865467031	132
2	1020	67.030865467031	133
2	1020	67.030865467031	134
2	1050	68.215701003035	135
2	1050	68.215701003035	136
2	1050	68.215701003035	137
2	1067	69.860218719762	138
2	1067	69.860218719762	139
2	1067	69.860218719762	140
2	1093	71.038830633493	141
2	1093	71.038830633493	142
2	1093	71.038830633493	143
2	1113	72.659643247462	144
2	1113	72.659643247462	145
2	1113	72.659643247462	146
2	1141	74.680341110987	147
2	1141	74.680341110987	148
2	1141	74.680341110987	149
2	1167	76.17861424712	150
2	1167	76.17861424712	151
2	1167	76.17861424712	152
2	1183	78.05878006974	153
2	1183	78.05878006974	154
2	1183	78.05878006974	155
2	1208	79.15893410698	156
2	1208	79.15893410698	157
2	1208	79.15893410698	158
2	1227	80.126073094298	159
2	1227	80.126073094298	160
2	1227	80.126073094298	161
2	1251	81.607301262511	162
2	1251	81.607301262511	163
2	1251	81.607301262511	164
2	1273	83.530497715099	165
2	1273	83.530497715099	166
2	1273	83.530497715099	167
2	1300	85.06802109205	168
2	1300	85.06802109205	169
2	1300	85.06802109205	170
2	1331	86.280686451036	171
2	1331	86.280686451036	172
2	1331	86.280686451036	173
2	1343	87.72663971311	174
2	1343	87.72663971311	175
2	1343	87.72663971311	176
2	1366	89.586084067037	177
2	1366	89.586084067037	178
2	1366	89.586084067037	179
2	1390	90.985115061416	180
2	1390	90.985115061416	181
2	1390	90.985115061416	182
2	1412	92.870134414407	183
2	1412	92.870134414407	184
2	1412	92.870134414407	185
2	1436	93.961072347902	186
2	1436	93.961072347902	187
2	1436	93.961072347902	188
2	1458	95.867203760041	189
2	1458	95.867203760041	190
2	1458	95.867203760041	191
2	1480	97.744746587203	192
2	1480	97.744746587203	193
2	1480	97.744746587203	194
2	1503	98.835116632269	195
2	1503	98.835116632269	196
2	1503	98.835116632269	197
2	1526	100.803470498306	198
2	1526	100.803470498306	199
2	1526	100.803470498306	200
2	1550	102.37948764631	201
2	1550	102.37948764631	202
2	1550	102.37948764631	203
2	1574	103.625762243088	204
2	1574	103.625762243088	205
2	1574	103.625762243088	206
2	1596	104.726295809158	207
2	1596	104.726295809158	208
2	1596	104.726295809158	209
2	1621	106.684786389361	210
2	1621	106.684786389361	211
2	1621	106.684786389361	212
2	1641	108.216483374957	213
2	1641	108.216483374957	214
2	1641	108.216483374957	215
2	1670	109.621475408875	216
2	1670	109.621475408875	217
2	1670	109.621475408875	218
2	1687	110.771288177392	219
2	1687	110.771288177392	220
2	1687	110.771288177392	221
2	1713	112.193701948321	222
2	1713	112.193701948321	223
2	1713	112.193701948321	224
2	1734	114.063999725024	225
2	1734	114.063999725024	226
2	1734	114.063999725024	227
2	1765	115.432100684914	228
2	1765	115.432100684914	229
2	1765	115.432100684914	230
2	1780	116.613431462695	231
2	1780	116.613431462695	232
2	1780	116.613431462695	233
2	1803	118.374494325316	234
2	1803	118.374494325316	235
2	1803	118.374494325316	236
2	1825	120.153574001917	237
2	1825	120.153574001917	238
2	1825	120.153574001917	239
2	1848	121.261950820214	240
2	1848	121.261950820214	241
2	1848	121.261950820214	242
2	1871	122.809266778179	243
2	1871	122.809266778179	244
2	1871	122.809266778179	245
2	1894	124.180436528855	246
2	1894	124.180436528855	247
2	1894	124.180436528855	248
2	1918	125.88526282987	249
2	1918	125.88526282987	250
2	1918	125.88526282987	251
2	1943	127.22898692581	252
2	1943	127.22898692581	253
2	1943	127.22898692581	254
2	1964	128.716571684634	255
2	1964	128.716571684634	256
2	1964	128.716571684634	257
2	1987	130.017732771838	258
2	1987	130.017732771838	259
2	1987	130.017732771838	260
2	2011	131.440364537648	261
2	2011	131.440364537648	262
2	2011	131.440364537648	263
2	2034	132.442485344548	264
2	2034	132.442485344548	265
2	2034	132.442485344548	266
2	2056	134.25192751269	267
2	2056	134.25192751269	268
2	2056	134.25192751269	269
2	2080	136.041566429091	270
2	2080	136.041566429091	271
2	2080	136.041566429091	272
2	2101	137.303587477844	273
2	2101	137.303587477844	274
2	2101	137.303587477844	275
2	2124	139.151259435351	276
2	2124	139.151259435351	277
2	2124	139.151259435351	278
2	2156	140.682660425333	279
2	2156	140.682660425333	280
2	2156	140.682660425333	281
2	2171	141.644690054714	282
2	2171	141.644690054714	283
2	2171	141.644690054714	284
2	2194	143.143911156767	285
2	2194	143.143911156767	286
2	2194	143.143911156767	287
2	2218	145.043613937873	288
2	2218	145.043613937873	289
2	2218	145.043613937873	290
2	2240	146.793431558972	291
2	2240	146.793431558972	292
2	2240	146.793431558972	293
2	2263	148.318280560708	294
2	2263	148.318280560708	295
2	2263	148.318280560708	296
2	2286	149.594898976485	297
2	2286	149.594898976485	298
2	2286	149.594898976485	299
2	2313	151.396496465606	300
2	2313	151.396496465606	301
2	2313	151.396496465606	302
2	2332	152.765321802827	303
2	2332	152.765321802827	304
2	2332	152.765321802827	305
2	2354	154.183372020689	306
2	2354	154.183372020689	307
2	2354	154.183372020689	308
2	2378	155.932609685762	309
2	2378	155.932609685762	310
2	2378	155.932609685762	311
2	2400	157.293832342628	312
2	2400	157.293832342628	313
2	2400	157.293832342628	314
2	2435	158.891808847362	315
2	2435	158.891808847362	316
2	2435	158.891808847362	317
2	2446	159.959631392882	318
2	2446	159.959631392882	319
2	2446	159.959631392882	320
2	2470	161.913133853862	321
2	2470	161.913133853862	322
2	2470	161.913133853862	323
2	2493	163.017502216312	324
2	2493	163.017502216312	325
2	2493	163.017502216312	326
2	2518	164.63094673204	327
2	2518	164.63094673204	328
2	2518	164.63094673204	329
2	2539	166.235178345066	330
2	2539	166.235178345066	331
2	2539	166.235178345066	332
2	2561	168.163828011101	333
2	2561	168.163828011101	334
2	2561	168.163828011101	335
2	2587	169.470769907372	336
2	2587	169.470769907372	337
2	2587	169.470769907372	338
2	2615	170.813371525208	339
2	2615	170.813371525208	340
2	2615	170.813371525208	341
2	2630	172.683776469905	342
2	2630	172.683776469905	343
2	2630	172.683776469905	344
2	2655	174.334381389416	345
2	2655	174.334381389416	346
2	2655	174.334381389416	347
2	2676	175.653927811065	348
2	2676	175.653927811065	349
2	2676	175.653927811065	350
2	2700	176.874735920529	351
2	2700	176.874735920529	352
2	2700	176.874735920529	353
2	2726	178.054654129132	354
2	2726	178.054654129132	355
2	2726	178.054654129132	356
2	2751	179.16137418031	357
2	2751	179.16137418031	358
2	2751	179.16137418031	359
2	2769	180.809061469071	360
2	2769	180.809061469071	361
2	2769	180.809061469071	362
2	2795	181.881831113756	363
2	2795	181.881831113756	364
2	2795	181.881831113756	365
2	2814	183.179773067053	366
2	2814	183.179773067053	367
2	2814	183.179773067053	368
2	2838	184.951914427556	369
2	2838	184.951914427556	370
2	2838	184.951914427556	371
2	2861	186.013818114062	372
2	2861	186.013818114062	373
2	2861	186.013818114062	374
2	2891	187.439388999357	375
2	2891	187.439388999357	376
2	2891	187.439388999357	377
2	2910	189.330695091467	378
2	2910	189.330695091467	379
2	2910	189.330695091467	380
2	2929	190.86034141319	381
2	2929	190.86034141319	382
2	2929	190.86034141319	383
2	2954	192.760342663352	384
2	2954	192.760342663352	385
2	2954	192.760342663352	386
2	2983	193.981285414755	387
2	2983	193.981285414755	388
2	2983	193.981285414755	389
2	2999	195.581104435852	390
2	2999	195.581104435852	391
2	2999	195.581104435852	392
2	3022	197.385904014715	393
2	3022	197.385904014715	394
2	3022	197.385904014715	395
2	3044	198.908353167949	396
2	3044	198.908353167949	397
2	3044	198.908353167949	398
2	3068	200.802944823929	399
2	3068	200.802944823929	400
2	3068	200.802944823929	401
2	3090	201.859869808128	402
2	3090	201.859869808128	403
2	3090	201.859869808128	404
2	3122	203.536309988845	405
2	3122	203.536309988845	406
2	3122	203.536309988845	407
2	3137	204.921089827896	408
2	3137	204.921089827896	409
2	3137	204.921089827896	410
2	3159	206.404319219436	411
2	3159	206.404319219436	412
2	3159	206.404319219436	413
2	3186	207.670200106785	414
2	3186	207.670200106785	415
2	3186	207.670200106785	416
2	3206	208.977121697027	417
2	3206	208.977121697027	418
2	3206	208.977121697027	419
2	3229	210.102080251814	420
2	3229	210.102080251814	421
2	3229	210.102080251814	422
2	3257	211.849193322641	423
2	3257	211.849193322641	424
2	3257	211.849193322641	425
2	3274	213.34201504259	426
2	3274	213.34201504259	427
2	3274	213.34201504259	428
2	3298	214.403080331004	429
2	3298	214.403080331004	430
2	3298	214.403080331004	431
2	3321	216.347254434928	432
2	3321	216.347254434928	433
2	3321	216.347254434928	434
2	3343	217.58915977165	435
2	3343	217.58915977165	436
2	3343	217.58915977165	437
2	3366	218.676801030622	438
2	3366	218.676801030622	439
2	3366	218.676801030622	440
2	3393	220.093757038922	441
2	3393	220.093757038922	442
2	3393	220.093757038922	443
2	3413	221.208583233286	444
2	3413	221.208583233286	445
2	3413	221.208583233286	446
2	3437	222.929842526589	447
2	3437	222.929842526589	448
2	3437	222.929842526589	449
2	3460	224.082346435664	450
2	3460	224.082346435664	451
2	3460	224.082346435664	452
2	3484	226.026305989842	453
2	3484	226.026305989842	454
2	3484	226.026305989842	455
2	3506	227.838715966528	456
2	3506	227.838715966528	457
2	3506	227.838715966528	458
2	3528	229.285521818837	459
2	3528	229.285521818837	460
2	3528	229.285521818837	461
2	3550	230.548621388133	462
2	3550	230.548621388133	463
2	3550	230.548621388133	464
2	3573	231.95725880242	465
2	3573	231.95725880242	466
2	3573	231.95725880242	467
2	3600	233.041607515022	468
2	3600	233.041607515022	469
2	3600	233.041607515022	470
2	3620	234.980876174546	471
2	3620	234.980876174546	472
2	3620	234.980876174546	473
2	3643	236.485611245919	474
2	3643	236.485611245919	475
2	3643	236.485611245919	476
2	3670	237.962473737124	477
2	3670	237.962473737124	478
2	3670	237.962473737124	479
2	3689	239.449243245809	480
2	3689	239.449243245809	481
2	3689	239.449243245809	482
3	9	0.160742618959	0
3	9	0.160742618959	1
3	9	0.160742618959	2
3	9	0.160742618959	3
3	31	1.757217502647	4
3	31	1.757217502647	5
3	31	1.757217502647	6
3	31	1.757217502647	7
3	54	3.309463319409	8
3	54	3.309463319409	9
3	54	3.309463319409	10
3	54	3.309463319409	11
3	77	4.988398816509	12
3	77	4.988398816509	13
3	77	4.988398816509	14
3	77	4.988398816509	15
3	100	6.610090227594	16
3	100	6.610090227594	17
3	100	6.610090227594	18
3	100	6.610090227594	19
3	124	7.956758732678	20
3	124	7.956758732678	21
3	124	7.956758732678	22
3	124	7.956758732678	23
3	157	9.474814208959	24
3	157	9.474814208959	25
3	157	9.474814208959	26
3	157	9.474814208959	27
3	170	11.397078131232	28
3	170	11.397078131232	29
3	170	11.397078131232	30
3	170	11.397078131232	31
3	193	12.822786039529	32
3	193	12.822786039529	33
3	193	12.822786039529	34
3	193	12.822786039529	35
3	220	14.480745114441	36
3	220	14.480745114441	37
3	220	14.480745114441	38
3	220	14.480745114441	39
3	240	15.722499398014	40
3	240	15.722499398014	41
3	240	15.722499398014	42
3	240	15.722499398014	43
3	261	17.389345624803	44
3	261	17.389345624803	45
3	261	17.389345624803	46
3	261	17.389345624803	47
3	284	18.682373425969	48
3	284	18.682373425969	49
3	284	18.682373425969	50
3	284	18.682373425969	51
3	308	20.023646393369	52
3	308	20.023646393369	53
3	308	20.023646393369	54
3	308	20.023646393369	55
3	338	21.183355162037	56
3	338	21.183355162037	57
3	338	21.183355162037	58
3	338	21.183355162037	59
3	356	22.602356236092	60
3	356	22.602356236092	61
3	356	22.602356236092	62
3	356	22.602356236092	63
3	377	23.604613343107	64
3	377	23.604613343107	65
3	377	23.604613343107	66
3	377	23.604613343107	67
3	399	24.855111926531	68
3	399	24.855111926531	69
3	399	24.855111926531	70
3	399	24.855111926531	71
3	433	26.13474788417	72
3	433	26.13474788417	73
3	433	26.13474788417	74
3	433	26.13474788417	75
3	445	27.769745007763	76
3	445	27.769745007763	77
3	445	27.769745007763	78
3	445	27.769745007763	79
3	468	29.618971722412	80
3	468	29.618971722412	81
3	468	29.618971722412	82
3	468	29.618971722412	83
3	492	30.914439600784	84
3	492	30.914439600784	85
3	492	30.914439600784	86
3	492	30.914439600784	87
3	514	32.428698196682	88
3	514	32.428698196682	89
3	514	32.428698196682	90
3	514	32.428698196682	91
3	537	33.51612197751	92
3	537	33.51612197751	93
3	537	33.51612197751	94
3	537	33.51612197751	95
3	566	35.323357406521	96
3	566	35.323357406521	97
3	566	35.323357406521	98
3	566	35.323357406521	99
3	584	37.027009062623	100
3	584	37.027009062623	101
3	584	37.027009062623	102
3	584	37.027009062623	103
3	607	38.51826533164	104
3	607	38.51826533164	105
3	607	38.51826533164	106
3	607	38.51826533164	107
3	630	40.309929071421	108
3	630	40.309929071421	109
3	630	40.309929071421	110
3	630	40.309929071421	111
3	652	41.457516975906	112
3	652	41.457516975906	113
3	652	41.457516975906	114
3	652	41.457516975906	115
3	677	42.93819925332	116
3	677	42.93819925332	117
3	677	42.93819925332	118
3	677	42.93819925332	119
3	698	44.729953575292	120
3	698	44.729953575292	121
3	698	44.729953575292	122
3	698	44.729953575292	123
3	722	46.176133119214	124
3	722	46.176133119214	125
3	722	46.176133119214	126
3	722	46.176133119214	127
3	744	47.308645321368	128
3	744	47.308645321368	129
3	744	47.308645321368	130
3	744	47.308645321368	131
3	768	48.740401338915	132
3	768	48.740401338915	133
3	768	48.740401338915	134
3	768	48.740401338915	135
3	790	50.595640390748	136
3	790	50.595640390748	137
3	790	50.595640390748	138
3	790	50.595640390748	139
3	813	52.050610468394	140
3	813	52.050610468394	141
3	813	52.050610468394	142
3	813	52.050610468394	143
3	836	53.989838445496	144
3	836	53.989838445496	145
3	836	53.989838445496	146
3	836	53.989838445496	147
3	864	55.571986802537	148
3	864	55.571986802537	149
3	864	55.571986802537	150
3	864	55.571986802537	151
3	882	57.562408783725	152
3	882	57.562408783725	153
3	882	57.562408783725	154
3	882	57.562408783725	155
3	906	59.373376472893	156
3	906	59.373376472893	157
3	906	59.373376472893	158
3	906	59.373376472893	159
3	935	61.290544961714	160
3	935	61.290544961714	161
3	935	61.290544961714	162
3	935	61.290544961714	163
3	953	62.429342377525	164
3	953	62.429342377525	165
3	953	62.429342377525	166
3	953	62.429342377525	167
3	974	64.048434258271	168
3	974	64.048434258271	169
3	974	64.048434258271	170
3	974	64.048434258271	171
3	997	65.741268405961	172
3	997	65.741268405961	173
3	997	65.741268405961	174
3	997	65.741268405961	175
3	1022	67.035668660469	176
3	1022	67.035668660469	177
3	1022	67.035668660469	178
3	1022	67.035668660469	179
3	1043	68.19790536201	180
3	1043	68.19790536201	181
3	1043	68.19790536201	182
3	1043	68.19790536201	183
3	1068	69.866681341385	184
3	1068	69.866681341385	185
3	1068	69.866681341385	186
3	1068	69.866681341385	187
3	1090	71.032150921939	188
3	1090	71.032150921939	189
3	1090	71.032150921939	190
3	1090	71.032150921939	191
3	1112	72.658011499804	192
3	1112	72.658011499804	193
3	1112	72.658011499804	194
3	1112	72.658011499804	195
3	1135	74.670213742212	196
3	1135	74.670213742212	197
3	1135	74.670213742212	198
3	1135	74.670213742212	199
3	1159	76.160681121544	200
3	1159	76.160681121544	201
3	1159	76.160681121544	202
3	1159	76.160681121544	203
3	1181	78.055112863681	204
3	1181	78.055112863681	205
3	1181	78.055112863681	206
3	1181	78.055112863681	207
3	1205	79.151503653029	208
3	1205	79.151503653029	209
3	1205	79.151503653029	210
3	1205	79.151503653029	211
3	1228	80.130679723401	212
3	1228	80.130679723401	213
3	1228	80.130679723401	214
3	1228	80.130679723401	215
3	1258	81.622638739253	216
3	1258	81.622638739253	217
3	1258	81.622638739253	218
3	1258	81.622638739253	219
3	1274	83.53224441916	220
3	1274	83.53224441916	221
3	1274	83.53224441916	222
3	1274	83.53224441916	223
3	1297	85.058904849673	224
3	1297	85.058904849673	225
3	1297	85.058904849673	226
3	1297	85.058904849673	227
3	1320	86.253595789466	228
3	1320	86.253595789466	229
3	1320	86.253595789466	230
3	1320	86.253595789466	231
3	1342	87.726081881864	232
3	1342	87.726081881864	233
3	1342	87.726081881864	234
3	1342	87.726081881864	235
3	1367	89.590353439375	236
3	1367	89.590353439375	237
3	1367	89.590353439375	238
3	1367	89.590353439375	239
3	1389	90.98286705837	240
3	1389	90.98286705837	241
3	1389	90.98286705837	242
3	1389	90.98286705837	243
3	1411	92.869969082152	244
3	1411	92.869969082152	245
3	1411	92.869969082152	246
3	1411	92.869969082152	247
3	1435	93.959233305362	248
3	1435	93.959233305362	249
3	1435	93.959233305362	250
3	1435	93.959233305362	251
3	1464	95.883557929159	252
3	1464	95.883557929159	253
3	1464	95.883557929159	254
3	1464	95.883557929159	255
3	1481	97.746008907418	256
3	1481	97.746008907418	257
3	1481	97.746008907418	258
3	1481	97.746008907418	259
3	1510	98.847851521554	260
3	1510	98.847851521554	261
3	1510	98.847851521554	262
3	1510	98.847851521554	263
3	1527	100.805254664822	264
3	1527	100.805254664822	265
3	1527	100.805254664822	266
3	1527	100.805254664822	267
3	1551	102.380434023429	268
3	1551	102.380434023429	269
3	1551	102.380434023429	270
3	1551	102.380434023429	271
3	1573	103.623835902614	272
3	1573	103.623835902614	273
3	1573	103.623835902614	274
3	1573	103.623835902614	275
3	1602	104.741902169227	276
3	1602	104.741902169227	277
3	1602	104.741902169227	278
3	1602	104.741902169227	279
3	1622	106.69287415363	280
3	1622	106.69287415363	281
3	1622	106.69287415363	282
3	1622	106.69287415363	283
3	1643	108.226254331135	284
3	1643	108.226254331135	285
3	1643	108.226254331135	286
3	1643	108.226254331135	287
3	1664	109.609689145672	288
3	1664	109.609689145672	289
3	1664	109.609689145672	290
3	1664	109.609689145672	291
3	1689	110.774437879494	292
3	1689	110.774437879494	293
3	1689	110.774437879494	294
3	1689	110.774437879494	295
3	1717	112.206503378323	296
3	1717	112.206503378323	297
3	1717	112.206503378323	298
3	1717	112.206503378323	299
3	1735	114.069883520468	300
3	1735	114.069883520468	301
3	1735	114.069883520468	302
3	1735	114.069883520468	303
3	1756	115.411874585269	304
3	1756	115.411874585269	305
3	1756	115.411874585269	306
3	1756	115.411874585269	307
3	1790	116.668585721587	308
3	1790	116.668585721587	309
3	1790	116.668585721587	310
3	1790	116.668585721587	311
3	1809	118.386865821085	312
3	1809	118.386865821085	313
3	1809	118.386865821085	314
3	1809	118.386865821085	315
3	1827	120.159538363152	316
3	1827	120.159538363152	317
3	1827	120.159538363152	318
3	1827	120.159538363152	319
3	1854	121.277004732314	320
3	1854	121.277004732314	321
3	1854	121.277004732314	322
3	1854	121.277004732314	323
3	1875	122.820503119353	324
3	1875	122.820503119353	325
3	1875	122.820503119353	326
3	1875	122.820503119353	327
3	1895	124.189022854967	328
3	1895	124.189022854967	329
3	1895	124.189022854967	330
3	1895	124.189022854967	331
3	1919	125.890017230235	332
3	1919	125.890017230235	333
3	1919	125.890017230235	334
3	1919	125.890017230235	335
3	1944	127.236847678928	336
3	1944	127.236847678928	337
3	1944	127.236847678928	338
3	1944	127.236847678928	339
3	1963	128.715203031767	340
3	1963	128.715203031767	341
3	1963	128.715203031767	342
3	1963	128.715203031767	343
3	1986	130.013271121759	344
3	1986	130.013271121759	345
3	1986	130.013271121759	346
3	1986	130.013271121759	347
3	2010	131.439720942603	348
3	2010	131.439720942603	349
3	2010	131.439720942603	350
3	2010	131.439720942603	351
3	2033	132.44106625508	352
3	2033	132.44106625508	353
3	2033	132.44106625508	354
3	2033	132.44106625508	355
3	2063	134.270180605948	356
3	2063	134.270180605948	357
3	2063	134.270180605948	358
3	2063	134.270180605948	359
3	2078	136.035466544855	360
3	2078	136.035466544855	361
3	2078	136.035466544855	362
3	2078	136.035466544855	363
3	2102	137.304132863979	364
3	2102	137.304132863979	365
3	2102	137.304132863979	366
3	2102	137.304132863979	367
3	2126	139.156629990304	368
3	2126	139.156629990304	369
3	2126	139.156629990304	370
3	2126	139.156629990304	371
3	2148	140.66208648705	372
3	2148	140.66208648705	373
3	2148	140.66208648705	374
3	2148	140.66208648705	375
3	2177	141.654817350558	376
3	2177	141.654817350558	377
3	2177	141.654817350558	378
3	2177	141.654817350558	379
3	2193	143.13919247373	380
3	2193	143.13919247373	381
3	2193	143.13919247373	382
3	2193	143.13919247373	383
3	2216	145.037903091488	384
3	2216	145.037903091488	385
3	2216	145.037903091488	386
3	2216	145.037903091488	387
3	2239	146.792069328563	388
3	2239	146.792069328563	389
3	2239	146.792069328563	390
3	2239	146.792069328563	391
3	2262	148.316083391873	392
3	2262	148.316083391873	393
3	2262	148.316083391873	394
3	2262	148.316083391873	395
3	2289	149.603498783346	396
3	2289	149.603498783346	397
3	2289	149.603498783346	398
3	2289	149.603498783346	399
3	2308	151.383518736955	400
3	2308	151.383518736955	401
3	2308	151.383518736955	402
3	2308	151.383518736955	403
3	2331	152.764800225134	404
3	2331	152.764800225134	405
3	2331	152.764800225134	406
3	2331	152.764800225134	407
3	2355	154.185245489402	408
3	2355	154.185245489402	409
3	2355	154.185245489402	410
3	2355	154.185245489402	411
3	2381	155.937463939328	412
3	2381	155.937463939328	413
3	2381	155.937463939328	414
3	2381	155.937463939328	415
3	2401	157.295238321453	416
3	2401	157.295238321453	417
3	2401	157.295238321453	418
3	2401	157.295238321453	419
3	2424	158.869002532113	420
3	2424	158.869002532113	421
3	2424	158.869002532113	422
3	2424	158.869002532113	423
3	2457	160.007522474538	424
3	2457	160.007522474538	425
3	2457	160.007522474538	426
3	2457	160.007522474538	427
3	2473	161.915426821937	428
3	2473	161.915426821937	429
3	2473	161.915426821937	430
3	2473	161.915426821937	431
3	2494	163.017900585876	432
3	2494	163.017900585876	433
3	2494	163.017900585876	434
3	2494	163.017900585876	435
3	2522	164.641578218679	436
3	2522	164.641578218679	437
3	2522	164.641578218679	438
3	2522	164.641578218679	439
3	2545	166.246866280808	440
3	2545	166.246866280808	441
3	2545	166.246866280808	442
3	2545	166.246866280808	443
3	2562	168.163837255554	444
3	2562	168.163837255554	445
3	2562	168.163837255554	446
3	2562	168.163837255554	447
3	2591	169.481454976805	448
3	2591	169.481454976805	449
3	2591	169.481454976805	450
3	2591	169.481454976805	451
3	2607	170.80099938211	452
3	2607	170.80099938211	453
3	2607	170.80099938211	454
3	2607	170.80099938211	455
3	2631	172.688973425603	456
3	2631	172.688973425603	457
3	2631	172.688973425603	458
3	2631	172.688973425603	459
3	2653	174.329342360267	460
3	2653	174.329342360267	461
3	2653	174.329342360267	462
3	2653	174.329342360267	463
3	2678	175.658717700844	464
3	2678	175.658717700844	465
3	2678	175.658717700844	466
3	2678	175.658717700844	467
3	2699	176.874594180153	468
3	2699	176.874594180153	469
3	2699	176.874594180153	470
3	2699	176.874594180153	471
3	2723	178.052387351623	472
3	2723	178.052387351623	473
3	2723	178.052387351623	474
3	2723	178.052387351623	475
3	2745	179.151277609201	476
3	2745	179.151277609201	477
3	2745	179.151277609201	478
3	2745	179.151277609201	479
3	2768	180.80796050429	480
3	2768	180.80796050429	481
3	2768	180.80796050429	482
3	2768	180.80796050429	483
3	2792	181.877676193001	484
3	2792	181.877676193001	485
3	2792	181.877676193001	486
3	2792	181.877676193001	487
3	2815	183.180777531919	488
3	2815	183.180777531919	489
3	2815	183.180777531919	490
3	2815	183.180777531919	491
3	2837	184.951207251408	492
3	2837	184.951207251408	493
3	2837	184.951207251408	494
3	2837	184.951207251408	495
3	2868	186.037626497815	496
3	2868	186.037626497815	497
3	2868	186.037626497815	498
3	2868	186.037626497815	499
3	2884	187.429296273926	500
3	2884	187.429296273926	501
3	2884	187.429296273926	502
3	2884	187.429296273926	503
3	2909	189.327177849528	504
3	2909	189.327177849528	505
3	2909	189.327177849528	506
3	2909	189.327177849528	507
3	2934	190.872293159806	508
3	2934	190.872293159806	509
3	2934	190.872293159806	510
3	2934	190.872293159806	511
3	2953	192.759539455064	512
3	2953	192.759539455064	513
3	2953	192.759539455064	514
3	2953	192.759539455064	515
3	2976	193.94989597805	516
3	2976	193.94989597805	517
3	2976	193.94989597805	518
3	2976	193.94989597805	519
3	2998	195.578952958864	520
3	2998	195.578952958864	521
3	2998	195.578952958864	522
3	2998	195.578952958864	523
3	3032	197.408447532831	524
3	3032	197.408447532831	525
3	3032	197.408447532831	526
3	3032	197.408447532831	527
3	3049	198.921521418989	528
3	3049	198.921521418989	529
3	3049	198.921521418989	530
3	3049	198.921521418989	531
3	3067	200.799737732635	532
3	3067	200.799737732635	533
3	3067	200.799737732635	534
3	3067	200.799737732635	535
3	3091	201.86288741926	536
3	3091	201.86288741926	537
3	3091	201.86288741926	538
3	3091	201.86288741926	539
3	3114	203.512217768841	540
3	3114	203.512217768841	541
3	3114	203.512217768841	542
3	3114	203.512217768841	543
3	3136	204.919257878996	544
3	3136	204.919257878996	545
3	3136	204.919257878996	546
3	3136	204.919257878996	547
3	3164	206.414612355677	548
3	3164	206.414612355677	549
3	3164	206.414612355677	550
3	3164	206.414612355677	551
3	3183	207.666479661978	552
3	3183	207.666479661978	553
3	3183	207.666479661978	554
3	3183	207.666479661978	555
3	3205	208.972138177185	556
3	3205	208.972138177185	557
3	3205	208.972138177185	558
3	3205	208.972138177185	559
3	3228	210.098165578812	560
3	3228	210.098165578812	561
3	3228	210.098165578812	562
3	3228	210.098165578812	563
3	3251	211.837834350533	564
3	3251	211.837834350533	565
3	3251	211.837834350533	566
3	3251	211.837834350533	567
3	3275	213.351112888881	568
3	3275	213.351112888881	569
3	3275	213.351112888881	570
3	3275	213.351112888881	571
3	3301	214.408543625004	572
3	3301	214.408543625004	573
3	3301	214.408543625004	574
3	3301	214.408543625004	575
3	3327	216.359413793355	576
3	3327	216.359413793355	577
3	3327	216.359413793355	578
3	3327	216.359413793355	579
3	3350	217.610041919097	580
3	3350	217.610041919097	581
3	3350	217.610041919097	582
3	3350	217.610041919097	583
3	3374	218.695619873337	584
3	3374	218.695619873337	585
3	3374	218.695619873337	586
3	3374	218.695619873337	587
3	3390	220.083869892554	588
3	3390	220.083869892554	589
3	3390	220.083869892554	590
3	3390	220.083869892554	591
3	3414	221.210450487204	592
3	3414	221.210450487204	593
3	3414	221.210450487204	594
3	3414	221.210450487204	595
3	3436	222.927872011199	596
3	3436	222.927872011199	597
3	3436	222.927872011199	598
3	3436	222.927872011199	599
3	3459	224.077673092801	600
3	3459	224.077673092801	601
3	3459	224.077673092801	602
3	3459	224.077673092801	603
3	3489	226.053398642837	604
3	3489	226.053398642837	605
3	3489	226.053398642837	606
3	3489	226.053398642837	607
3	3505	227.831411539798	608
3	3505	227.831411539798	609
3	3505	227.831411539798	610
3	3505	227.831411539798	611
3	3527	229.283261012152	612
3	3527	229.283261012152	613
3	3527	229.283261012152	614
3	3527	229.283261012152	615
3	3551	230.548706555181	616
3	3551	230.548706555181	617
3	3551	230.548706555181	618
3	3551	230.548706555181	619
3	3574	231.963250062326	620
3	3574	231.963250062326	621
3	3574	231.963250062326	622
3	3574	231.963250062326	623
3	3597	233.031730520087	624
3	3597	233.031730520087	625
3	3597	233.031730520087	626
3	3597	233.031730520087	627
3	3619	234.971836480785	628
3	3619	234.971836480785	629
3	3619	234.971836480785	630
3	3619	234.971836480785	631
3	3649	236.498489965672	632
3	3649	236.498489965672	633
3	3649	236.498489965672	634
3	3649	236.498489965672	635
3	3665	237.944172712689	636
3	3665	237.944172712689	637
3	3665	237.944172712689	638
3	3665	237.944172712689	639
3	3688	239.439666627409	640
3	3688	239.439666627409	641
3	3688	239.439666627409	642
3	3688	239.439666627409	643
4	10	0.163252200566	0
4	10	0.163252200566	1
4	32	1.757694204058	2
4	32	1.757694204058	3
4	55	3.315294295522	4
4	55	3.315294295522	5
4	78	4.989490706784	6
4	78	4.989490706784	7
4	101	6.6113424501	8
4	101	6.6113424501	9
4	123	7.956449278813	10
4	123	7.956449278813	11
4	147	9.450637388836	12
4	147	9.450637388836	13
4	169	11.395862175443	14
4	169	11.395862175443	15
4	192	12.820965659731	16
4	192	12.820965659731	17
4	219	14.480322847667	18
4	219	14.480322847667	19
4	239	15.714070186202	20
4	239	15.714070186202	21
4	268	17.405583743987	22
4	268	17.405583743987	23
4	293	18.700040843701	24
4	293	18.700040843701	25
4	312	20.031645448653	26
4	312	20.031645448653	27
4	330	21.146373388437	28
4	330	21.146373388437	29
4	353	22.590967312665	30
4	353	22.590967312665	31
4	376	23.599438422297	32
4	376	23.599438422297	33
4	409	24.875817903855	34
4	409	24.875817903855	35
4	423	26.099230403242	36
4	423	26.099230403242	37
4	455	27.787665011634	38
4	455	27.787665011634	39
4	470	29.624240128667	40
4	470	29.624240128667	41
4	497	30.920602241361	42
4	497	30.920602241361	43
4	527	32.453349243063	44
4	527	32.453349243063	45
4	539	33.522803212874	46
4	539	33.522803212874	47
4	565	35.321520808871	48
4	565	35.321520808871	49
4	583	37.025260356093	50
4	583	37.025260356093	51
4	608	38.519443179354	52
4	608	38.519443179354	53
4	629	40.304274229161	54
4	629	40.304274229161	55
4	654	41.463321293866	56
4	654	41.463321293866	57
4	675	42.936331988554	58
4	675	42.936331988554	59
4	699	44.731709351315	60
4	699	44.731709351315	61
4	723	46.183040513142	62
4	723	46.183040513142	63
4	745	47.314782203499	64
4	745	47.314782203499	65
4	767	48.732396616278	66
4	767	48.732396616278	67
4	791	50.599692442052	68
4	791	50.599692442052	69
4	815	52.052741783133	70
4	815	52.052741783133	71
4	838	53.999353280008	72
4	838	53.999353280008	73
4	863	55.567306817802	74
4	863	55.567306817802	75
4	889	57.583835646154	76
4	889	57.583835646154	77
4	907	59.377335574748	78
4	907	59.377335574748	79
4	928	61.278616018159	80
4	928	61.278616018159	81
4	952	62.426664684955	82
4	952	62.426664684955	83
4	987	64.077964740044	84
4	987	64.077964740044	85
4	1002	65.753341012789	86
4	1002	65.753341012789	87
4	1021	67.034044718553	88
4	1021	67.034044718553	89
4	1044	68.206380656341	90
4	1044	68.206380656341	91
4	1066	69.859300674614	92
4	1066	69.859300674614	93
4	1089	71.025208876104	94
4	1089	71.025208876104	95
4	1114	72.662340094882	96
4	1114	72.662340094882	97
4	1136	74.67230936708	98
4	1136	74.67230936708	99
4	1158	76.156514371653	100
4	1158	76.156514371653	101
4	1182	78.055152042721	102
4	1182	78.055152042721	103
4	1204	79.148181798186	104
4	1204	79.148181798186	105
4	1229	80.132396524633	106
4	1229	80.132396524633	107
4	1250	81.599710330195	108
4	1250	81.599710330195	109
4	1275	83.53532193021	110
4	1275	83.53532193021	111
4	1296	85.049234723885	112
4	1296	85.049234723885	113
4	1319	86.247548230201	114
4	1319	86.247548230201	115
4	1344	87.730520456074	116
4	1344	87.730520456074	117
4	1365	89.582940941309	118
4	1365	89.582940941309	119
4	1388	90.98223069969	120
4	1388	90.98223069969	121
4	1413	92.87143999505	122
4	1413	92.87143999505	123
4	1434	93.957858846192	124
4	1434	93.957858846192	125
4	1457	95.864622542875	126
4	1457	95.864622542875	127
4	1493	97.779579629212	128
4	1493	97.779579629212	129
4	1504	98.83512224881	130
4	1504	98.83512224881	131
4	1535	100.820633532404	132
4	1535	100.820633532404	133
4	1549	102.373301811372	134
4	1549	102.373301811372	135
4	1572	103.622918829737	136
4	1572	103.622918829737	137
4	1595	104.717634264957	138
4	1595	104.717634264957	139
4	1618	106.674513768092	140
4	1618	106.674513768092	141
4	1642	108.216760187968	142
4	1642	108.216760187968	143
4	1665	109.618606255333	144
4	1665	109.618606255333	145
4	1688	110.77228045172	146
4	1688	110.77228045172	147
4	1710	112.183255537698	148
4	1710	112.183255537698	149
4	1733	114.06331851633	150
4	1733	114.06331851633	151
4	1757	115.420611225868	152
4	1757	115.420611225868	153
4	1779	116.609386259648	154
4	1779	116.609386259648	155
4	1802	118.37258992924	156
4	1802	118.37258992924	157
4	1826	120.157544508301	158
4	1826	120.157544508301	159
4	1849	121.271398623501	160
4	1849	121.271398623501	161
4	1884	122.833296419877	162
4	1884	122.833296419877	163
4	1896	124.189353262107	164
4	1896	124.189353262107	165
4	1917	125.882841650181	166
4	1917	125.882841650181	167
4	1940	127.217655605873	168
4	1940	127.217655605873	169
4	1972	128.727553347496	170
4	1972	128.727553347496	171
4	1992	130.02401352104	172
4	1992	130.02401352104	173
4	2009	131.433797105606	174
4	2009	131.433797105606	175
4	2032	132.438555387451	176
4	2032	132.438555387451	177
4	2055	134.250660517506	178
4	2055	134.250660517506	179
4	2079	136.035634361488	180
4	2079	136.035634361488	181
4	2111	137.327713112752	182
4	2111	137.327713112752	183
4	2125	139.151320394232	184
4	2125	139.151320394232	185
4	2147	140.661390395571	186
4	2147	140.661390395571	187
4	2170	141.635514222372	188
4	2170	141.635514222372	189
4	2203	143.16286205581	190
4	2203	143.16286205581	191
4	2217	145.04298659749	192
4	2217	145.04298659749	193
4	2252	146.831608313298	194
4	2252	146.831608313298	195
4	2275	148.347326410655	196
4	2275	148.347326410655	197
4	2285	149.591994959135	198
4	2285	149.591994959135	199
4	2318	151.411527340037	200
4	2318	151.411527340037	201
4	2340	152.778973860297	202
4	2340	152.778973860297	203
4	2364	154.209246324732	204
4	2364	154.209246324732	205
4	2377	155.923822592444	206
4	2377	155.923822592444	207
4	2409	157.318648039178	208
4	2409	157.318648039178	209
4	2423	158.868775887974	210
4	2423	158.868775887974	211
4	2454	159.986216385765	212
4	2454	159.986216385765	213
4	2469	161.903701255679	214
4	2469	161.903701255679	215
4	2492	163.01625513803	216
4	2492	163.01625513803	217
4	2515	164.620730026175	218
4	2515	164.620730026175	219
4	2538	166.230621524816	220
4	2538	166.230621524816	221
4	2563	168.164356579334	222
4	2563	168.164356579334	223
4	2584	169.456941701672	224
4	2584	169.456941701672	225
4	2608	170.802417917053	226
4	2608	170.802417917053	227
4	2632	172.693181553202	228
4	2632	172.693181553202	229
4	2654	174.331855118119	230
4	2654	174.331855118119	231
4	2677	175.654380995225	232
4	2677	175.654380995225	233
4	2708	176.890819012739	234
4	2708	176.890819012739	235
4	2722	178.043462821758	236
4	2722	178.043462821758	237
4	2746	179.158775877317	238
4	2746	179.158775877317	239
4	2770	180.809848347038	240
4	2770	180.809848347038	241
4	2791	181.871144534307	242
4	2791	181.871144534307	243
4	2827	183.20240847468	244
4	2827	183.20240847468	245
4	2850	184.979035474792	246
4	2850	184.979035474792	247
4	2860	186.009894328467	248
4	2860	186.009894328467	249
4	2883	187.428773801032	250
4	2883	187.428773801032	251
4	2906	189.309044077372	252
4	2906	189.309044077372	253
4	2930	190.867084963847	254
4	2930	190.867084963847	255
4	2952	192.754624741092	256
4	2952	192.754624741092	257
4	2975	193.946153147202	258
4	2975	193.946153147202	259
4	3000	195.584440319074	260
4	3000	195.584440319074	261
4	3021	197.384963354552	262
4	3021	197.384963354552	263
4	3045	198.913767849419	264
4	3045	198.913767849419	265
4	3069	200.80356680773	266
4	3069	200.80356680773	267
4	3100	201.876173711088	268
4	3100	201.876173711088	269
4	3113	203.507882328569	270
4	3113	203.507882328569	271
4	3138	204.922370217182	272
4	3138	204.922370217182	273
4	3160	206.412916258292	274
4	3160	206.412916258292	275
4	3182	207.657664519882	276
4	3182	207.657664519882	277
4	3218	209.009604886741	278
4	3218	209.009604886741	279
4	3238	210.114505398806	280
4	3238	210.114505398806	281
4	3258	211.853357114968	282
4	3258	211.853357114968	283
4	3279	213.352120009531	284
4	3279	213.352120009531	285
4	3297	214.396841755802	286
4	3297	214.396841755802	287
4	3320	216.345089712964	288
4	3320	216.345089712964	289
4	3344	217.596803292104	290
4	3344	217.596803292104	291
4	3367	218.679266996346	292
4	3367	218.679266996346	293
4	3389	220.082108902551	294
4	3389	220.082108902551	295
4	3412	221.205835448718	296
4	3412	221.205835448718	297
4	3435	222.924928243893	298
4	3435	222.924928243893	299
4	3458	224.076939031649	300
4	3458	224.076939031649	301
4	3481	226.016011964988	302
4	3481	226.016011964988	303
4	3504	227.830917269571	304
4	3504	227.830917269571	305
4	3529	229.292681229448	306
4	3529	229.292681229448	307
4	3552	230.552397530077	308
4	3552	230.552397530077	309
4	3578	231.969764966762	310
4	3578	231.969764966762	311
4	3596	233.026753203571	312
4	3596	233.026753203571	313
4	3632	235.010152819649	314
4	3632	235.010152819649	315
4	3642	236.483096227012	316
4	3642	236.483096227012	317
4	3672	237.966488868217	318
4	3672	237.966488868217	319
4	3694	239.452513474277	320
4	3694	239.452513474277	321
5	20	0.190616336646	0
5	20	0.190616336646	1
5	20	0.190616336646	2
5	40	1.768729811184	3
5	40	1.768729811184	4
5	40	1.768729811184	5
5	60	3.322536122931	6
5	60	3.322536122931	7
5	60	3.322536122931	8
5	89	5.021662327126	9
5	89	5.021662327126	10
5	89	5.021662327126	11
5	107	6.621166578676	12
5	107	6.621166578676	13
5	107	6.621166578676	14
5	135	7.977621426487	15
5	135	7.977621426487	16
5	135	7.977621426487	17
5	151	9.459803823493	18
5	151	9.459803823493	19
5	151	9.459803823493	20
5	177	11.407945836055	21
5	177	11.407945836055	22
5	177	11.407945836055	23
5	204	12.844112380949	24
5	204	12.844112380949	25
5	204	12.844112380949	26
5	221	14.484258159925	27
5	221	14.484258159925	28
5	221	14.484258159925	29
5	250	15.754199606427	30
5	250	15.754199606427	31
5	250	15.754199606427	32
5	267	17.400314852349	33
5	267	17.400314852349	34
5	267	17.400314852349	35
5	294	18.704543620922	36
5	294	18.704543620922	37
5	294	18.704543620922	38
5	317	20.033672628897	39
5	317	20.033672628897	40
5	317	20.033672628897	41
5	337	21.177504278245	42
5	337	21.177504278245	43
5	337	21.177504278245	44
5	362	22.619288233787	45
5	362	22.619288233787	46
5	362	22.619288233787	47
5	385	23.616673663592	48
5	385	23.616673663592	49
5	385	23.616673663592	50
5	408	24.874726322247	51
5	408	24.874726322247	52
5	408	24.874726322247	53
5	427	26.101004941312	54
5	427	26.101004941312	55
5	427	26.101004941312	56
5	454	27.78583545389	57
5	454	27.78583545389	58
5	454	27.78583545389	59
5	480	29.63520001551	60
5	480	29.63520001551	61
5	480	29.63520001551	62
5	496	30.920272719519	63
5	496	30.920272719519	64
5	496	30.920272719519	65
5	523	32.441453476052	66
5	523	32.441453476052	67
5	523	32.441453476052	68
5	549	33.535448096063	69
5	549	33.535448096063	70
5	549	33.535448096063	71
5	564	35.316220577376	72
5	564	35.316220577376	73
5	564	35.316220577376	74
5	595	37.076485395299	75
5	595	37.076485395299	76
5	595	37.076485395299	77
5	612	38.526480552849	78
5	612	38.526480552849	79
5	612	38.526480552849	80
5	638	40.324693857247	81
5	638	40.324693857247	82
5	638	40.324693857247	83
5	659	41.472296155781	84
5	659	41.472296155781	85
5	659	41.472296155781	86
5	687	42.962063441574	87
5	687	42.962063441574	88
5	687	42.962063441574	89
5	706	44.74558182731	90
5	706	44.74558182731	91
5	706	44.74558182731	92
5	733	46.209917164567	93
5	733	46.209917164567	94
5	733	46.209917164567	95
5	751	47.32039527185	96
5	751	47.32039527185	97
5	751	47.32039527185	98
5	776	48.75139355418	99
5	776	48.75139355418	100
5	776	48.75139355418	101
5	796	50.605805023588	102
5	796	50.605805023588	103
5	796	50.605805023588	104
5	825	52.067999668593	105
5	825	52.067999668593	106
5	825	52.067999668593	107
5	848	54.046241245455	108
5	848	54.046241245455	109
5	848	54.046241245455	110
5	865	55.576580041536	111
5	865	55.576580041536	112
5	865	55.576580041536	113
5	887	57.575056606458	114
5	887	57.575056606458	115
5	887	57.575056606458	116
5	917	59.387636212247	117
5	917	59.387636212247	118
5	917	59.387636212247	119
5	940	61.307721191511	120
5	940	61.307721191511	121
5	940	61.307721191511	122
5	963	62.447609728634	123
5	963	62.447609728634	124
5	963	62.447609728634	125
5	979	64.0616476613	126
5	979	64.0616476613	127
5	979	64.0616476613	128
5	1009	65.773793334662	129
5	1009	65.773793334662	130
5	1009	65.773793334662	131
5	1032	67.052275900374	132
5	1032	67.052275900374	133
5	1032	67.052275900374	134
5	1049	68.214071292895	135
5	1049	68.214071292895	136
5	1049	68.214071292895	137
5	1078	69.882102011365	138
5	1078	69.882102011365	139
5	1078	69.882102011365	140
5	1101	71.052609174867	141
5	1101	71.052609174867	142
5	1101	71.052609174867	143
5	1124	72.689811704276	144
5	1124	72.689811704276	145
5	1124	72.689811704276	146
5	1142	74.681447836927	147
5	1142	74.681447836927	148
5	1142	74.681447836927	149
5	1166	76.171476823095	150
5	1166	76.171476823095	151
5	1166	76.171476823095	152
5	1193	78.072515385595	153
5	1193	78.072515385595	154
5	1193	78.072515385595	155
5	1213	79.16484440386	156
5	1213	79.16484440386	157
5	1213	79.16484440386	158
5	1239	80.153317013153	159
5	1239	80.153317013153	160
5	1239	80.153317013153	161
5	1257	81.618899260315	162
5	1257	81.618899260315	163
5	1257	81.618899260315	164
5	1285	83.568762954805	165
5	1285	83.568762954805	166
5	1285	83.568762954805	167
5	1305	85.071669726514	168
5	1305	85.071669726514	169
5	1305	85.071669726514	170
5	1327	86.269725462153	171
5	1327	86.269725462153	172
5	1327	86.269725462153	173
5	1354	87.753364475594	174
5	1354	87.753364475594	175
5	1354	87.753364475594	176
5	1377	89.607040565739	177
5	1377	89.607040565739	178
5	1377	89.607040565739	179
5	1400	91.000168278573	180
5	1400	91.000168278573	181
5	1400	91.000168278573	182
5	1423	92.882487829999	183
5	1423	92.882487829999	184
5	1423	92.882487829999	185
5	1446	93.995435321131	186
5	1446	93.995435321131	187
5	1446	93.995435321131	188
5	1465	95.88521284687	189
5	1465	95.88521284687	190
5	1465	95.88521284687	191
5	1489	97.756713794089	192
5	1489	97.756713794089	193
5	1489	97.756713794089	194
5	1515	98.8579245955	195
5	1515	98.8579245955	196
5	1515	98.8579245955	197
5	1538	100.861617478303	198
5	1538	100.861617478303	199
5	1538	100.861617478303	200
5	1561	102.397154900131	201
5	1561	102.397154900131	202
5	1561	102.397154900131	203
5	1584	103.642234237628	204
5	1584	103.642234237628	205
5	1584	103.642234237628	206
5	1607	104.762524064377	207
5	1607	104.762524064377	208
5	1607	104.762524064377	209
5	1630	106.715532913185	210
5	1630	106.715532913185	211
5	1630	106.715532913185	212
5	1649	108.229553148782	213
5	1649	108.229553148782	214
5	1649	108.229553148782	215
5	1671	109.626216581877	216
5	1671	109.626216581877	217
5	1671	109.626216581877	218
5	1699	110.789846669606	219
5	1699	110.789846669606	220
5	1699	110.789846669606	221
5	1718	112.208149132871	222
5	1718	112.208149132871	223
5	1718	112.208149132871	224
5	1741	114.078448709714	225
5	1741	114.078448709714	226
5	1741	114.078448709714	227
5	1762	115.425298269398	228
5	1762	115.425298269398	229
5	1762	115.425298269398	230
5	1786	116.625321247862	231
5	1786	116.625321247862	232
5	1786	116.625321247862	233
5	1814	118.409571548669	234
5	1814	118.409571548669	235
5	1814	118.409571548669	236
5	1837	120.17220648736	237
5	1837	120.17220648736	238
5	1837	120.17220648736	239
5	1853	121.272344022713	240
5	1853	121.272344022713	241
5	1853	121.272344022713	242
5	1876	122.821064419061	243
5	1876	122.821064419061	244
5	1876	122.821064419061	245
5	1900	124.192891223676	246
5	1900	124.192891223676	247
5	1900	124.192891223676	248
5	1929	125.902027528669	249
5	1929	125.902027528669	250
5	1929	125.902027528669	251
5	1952	127.324597108403	252
5	1952	127.324597108403	253
5	1952	127.324597108403	254
5	1973	128.737244243368	255
5	1973	128.737244243368	256
5	1973	128.737244243368	257
5	1996	130.03050558176	258
5	1996	130.03050558176	259
5	1996	130.03050558176	260
5	2021	131.451048132901	261
5	2021	131.451048132901	262
5	2021	131.451048132901	263
5	2044	132.453755960363	264
5	2044	132.453755960363	265
5	2044	132.453755960363	266
5	2062	134.262682877299	267
5	2062	134.262682877299	268
5	2062	134.262682877299	269
5	2090	136.055320447301	270
5	2090	136.055320447301	271
5	2090	136.055320447301	272
5	2110	137.324889886233	273
5	2110	137.324889886233	274
5	2110	137.324889886233	275
5	2132	139.162129087128	276
5	2132	139.162129087128	277
5	2132	139.162129087128	278
5	2155	140.680363505268	279
5	2155	140.680363505268	280
5	2155	140.680363505268	281
5	2178	141.662125559587	282
5	2178	141.662125559587	283
5	2178	141.662125559587	284
5	2199	143.153597931532	285
5	2199	143.153597931532	286
5	2199	143.153597931532	287
5	2225	145.053412411234	288
5	2225	145.053412411234	289
5	2225	145.053412411234	290
5	2248	146.804883385907	291
5	2248	146.804883385907	292
5	2248	146.804883385907	293
5	2271	148.3362552848	294
5	2271	148.3362552848	295
5	2271	148.3362552848	296
5	2293	149.607649799623	297
5	2293	149.607649799623	298
5	2293	149.607649799623	299
5	2317	151.411052123996	300
5	2317	151.411052123996	301
5	2317	151.411052123996	302
5	2341	152.7793135978	303
5	2341	152.7793135978	304
5	2341	152.7793135978	305
5	2363	154.206111176865	306
5	2363	154.206111176865	307
5	2363	154.206111176865	308
5	2389	155.958822551789	309
5	2389	155.958822551789	310
5	2389	155.958822551789	311
5	2410	157.32351568703	312
5	2410	157.32351568703	313
5	2410	157.32351568703	314
5	2431	158.879630782433	315
5	2431	158.879630782433	316
5	2431	158.879630782433	317
5	2450	159.975760202638	318
5	2450	159.975760202638	319
5	2450	159.975760202638	320
5	2481	161.927541252331	321
5	2481	161.927541252331	322
5	2481	161.927541252331	323
5	2504	163.043009933096	324
5	2504	163.043009933096	325
5	2504	163.043009933096	326
5	2527	164.690404608982	327
5	2527	164.690404608982	328
5	2527	164.690404608982	329
5	2546	166.252152017469	330
5	2546	166.252152017469	331
5	2546	166.252152017469	332
5	2573	168.182143537379	333
5	2573	168.182143537379	334
5	2573	168.182143537379	335
5	2596	169.491573786153	336
5	2596	169.491573786153	337
5	2596	169.491573786153	338
5	2616	170.813909233319	339
5	2616	170.813909233319	340
5	2616	170.813909233319	341
5	2642	172.708681807847	342
5	2642	172.708681807847	343
5	2642	172.708681807847	344
5	2662	174.343258756278	345
5	2662	174.343258756278	346
5	2662	174.343258756278	347
5	2688	175.671527527911	348
5	2688	175.671527527911	349
5	2688	175.671527527911	350
5	2709	176.898689317742	351
5	2709	176.898689317742	352
5	2709	176.898689317742	353
5	2734	178.075843963498	354
5	2734	178.075843963498	355
5	2734	178.075843963498	356
5	2757	179.187517888888	357
5	2757	179.187517888888	358
5	2757	179.187517888888	359
5	2780	180.822189515448	360
5	2780	180.822189515448	361
5	2780	180.822189515448	362
5	2800	181.891787218585	363
5	2800	181.891787218585	364
5	2800	181.891787218585	365
5	2823	183.192006876387	366
5	2823	183.192006876387	367
5	2823	183.192006876387	368
5	2843	184.961666955599	369
5	2843	184.961666955599	370
5	2843	184.961666955599	371
5	2867	186.030618586878	372
5	2867	186.030618586878	373
5	2867	186.030618586878	374
5	2892	187.446368039695	375
5	2892	187.446368039695	376
5	2892	187.446368039695	377
5	2918	189.344898579968	378
5	2918	189.344898579968	379
5	2918	189.344898579968	380
5	2941	190.885738434621	381
5	2941	190.885738434621	382
5	2941	190.885738434621	383
5	2961	192.770135992085	384
5	2961	192.770135992085	385
5	2961	192.770135992085	386
5	2984	193.985931983956	387
5	2984	193.985931983956	388
5	2984	193.985931983956	389
5	3008	195.591460984854	390
5	3008	195.591460984854	391
5	3008	195.591460984854	392
5	3028	197.39809428316	393
5	3028	197.39809428316	394
5	3028	197.39809428316	395
5	3056	198.942239869235	396
5	3056	198.942239869235	397
5	3056	198.942239869235	398
5	3079	200.814555933087	399
5	3079	200.814555933087	400
5	3079	200.814555933087	401
5	3099	201.874157122877	402
5	3099	201.874157122877	403
5	3099	201.874157122877	404
5	3121	203.526992668092	405
5	3121	203.526992668092	406
5	3121	203.526992668092	407
5	3148	204.942073314026	408
5	3148	204.942073314026	409
5	3148	204.942073314026	410
5	3165	206.418108238025	411
5	3165	206.418108238025	412
5	3165	206.418108238025	413
5	3194	207.690287000865	414
5	3194	207.690287000865	415
5	3194	207.690287000865	416
5	3214	208.990948091958	417
5	3214	208.990948091958	418
5	3214	208.990948091958	419
5	3234	210.108715734884	420
5	3234	210.108715734884	421
5	3234	210.108715734884	422
5	3256	211.84811218187	423
5	3256	211.84811218187	424
5	3256	211.84811218187	425
5	3280	213.354064554537	426
5	3280	213.354064554537	427
5	3280	213.354064554537	428
5	3309	214.427246664389	429
5	3309	214.427246664389	430
5	3309	214.427246664389	431
5	3328	216.365355602733	432
5	3328	216.365355602733	433
5	3328	216.365355602733	434
5	3351	217.614645627298	435
5	3351	217.614645627298	436
5	3351	217.614645627298	437
5	3371	218.688892601438	438
5	3371	218.688892601438	439
5	3371	218.688892601438	440
5	3398	220.100697203022	441
5	3398	220.100697203022	442
5	3398	220.100697203022	443
5	3424	221.222067196086	444
5	3424	221.222067196086	445
5	3424	221.222067196086	446
5	3447	222.945896672514	447
5	3447	222.945896672514	448
5	3447	222.945896672514	449
5	3467	224.087921637284	450
5	3467	224.087921637284	451
5	3467	224.087921637284	452
5	3488	226.050742529455	453
5	3488	226.050742529455	454
5	3488	226.050742529455	455
5	3516	227.862981180253	456
5	3516	227.862981180253	457
5	3516	227.862981180253	458
5	3539	229.304614645534	459
5	3539	229.304614645534	460
5	3539	229.304614645534	461
5	3560	230.559391543375	462
5	3560	230.559391543375	463
5	3560	230.559391543375	464
5	3585	231.982392028816	465
5	3585	231.982392028816	466
5	3585	231.982392028816	467
5	3608	233.076214791098	468
5	3608	233.076214791098	469
5	3608	233.076214791098	470
5	3625	234.984514803126	471
5	3625	234.984514803126	472
5	3625	234.984514803126	473
5	3654	236.52973791401	474
5	3654	236.52973791401	475
5	3654	236.52973791401	476
5	3671	237.964905818585	477
5	3671	237.964905818585	478
5	3671	237.964905818585	479
5	3695	239.459074676756	480
5	3695	239.459074676756	481
5	3695	239.459074676756	482
6	23	0.200616336646	0
6	46	1.778729811184	1
6	65	3.332536122931	2
6	92	5.031662327126	3
6	115	6.631166578676	4
6	138	7.987621426487	5
6	156	9.469803823493	6
6	181	11.417945836055	7
6	207	12.854112380949	8
6	230	14.494258159925	9
6	253	15.764199606427	10
6	274	17.410314852349	11
6	299	18.714543620922	12
6	322	20.043672628897	13
6	341	21.187504278245	14
6	368	22.629288233787	15
6	391	23.626673663592	16
6	412	24.884726322247	17
6	432	26.111004941312	18
6	458	27.79583545389	19
6	483	29.64520001551	20
6	504	30.930272719519	21
6	526	32.451453476052	22
6	552	33.545448096063	23
6	569	35.326220577376	24
6	598	37.086485395299	25
6	621	38.536480552849	26
6	644	40.334693857247	27
6	667	41.482296155781	28
6	690	42.972063441574	29
6	710	44.75558182731	30
6	736	46.219917164567	31
6	759	47.33039527185	32
6	782	48.76139355418	33
6	801	50.615805023588	34
6	828	52.077999668593	35
6	851	54.056241245455	36
6	874	55.586580041536	37
6	892	57.585056606458	38
6	920	59.397636212247	39
6	943	61.317721191511	40
6	966	62.457609728634	41
6	983	64.0716476613	42
6	1012	65.783793334662	43
6	1035	67.062275900374	44
6	1055	68.224071292895	45
6	1081	69.892102011365	46
6	1104	71.062609174867	47
6	1127	72.699811704276	48
6	1150	74.691447836927	49
6	1170	76.181476823095	50
6	1196	78.082515385595	51
6	1219	79.17484440386	52
6	1242	80.163317013153	53
6	1261	81.628899260315	54
6	1288	83.578762954805	55
6	1311	85.081669726514	56
6	1330	86.279725462153	57
6	1357	87.763364475594	58
6	1380	89.617040565739	59
6	1403	91.010168278573	60
6	1426	92.892487829999	61
6	1449	94.005435321131	62
6	1472	95.89521284687	63
6	1492	97.766713794089	64
6	1518	98.8679245955	65
6	1541	100.871617478303	66
6	1564	102.407154900131	67
6	1587	103.652234237628	68
6	1610	104.772524064377	69
6	1633	106.725532913185	70
6	1656	108.239553148782	71
6	1679	109.636216581877	72
6	1702	110.799846669606	73
6	1725	112.218149132871	74
6	1748	114.088448709714	75
6	1768	115.435298269398	76
6	1789	116.635321247862	77
6	1817	118.419571548669	78
6	1840	120.18220648736	79
6	1859	121.282344022713	80
6	1883	122.831064419061	81
6	1909	124.202891223676	82
6	1932	125.912027528669	83
6	1955	127.334597108403	84
6	1978	128.747244243368	85
6	2001	130.04050558176	86
6	2024	131.461048132901	87
6	2047	132.463755960363	88
6	2066	134.272682877299	89
6	2093	136.065320447301	90
6	2114	137.334889886233	91
6	2139	139.172129087128	92
6	2159	140.690363505268	93
6	2185	141.672125559587	94
6	2206	143.163597931532	95
6	2231	145.063412411234	96
6	2251	146.814883385907	97
6	2274	148.3462552848	98
6	2300	149.617649799623	99
6	2321	151.421052123996	100
6	2346	152.7893135978	101
6	2367	154.216111176865	102
6	2392	155.968822551789	103
6	2415	157.33351568703	104
6	2434	158.889630782433	105
6	2453	159.985760202638	106
6	2484	161.937541252331	107
6	2507	163.053009933096	108
6	2530	164.700404608982	109
6	2553	166.262152017469	110
6	2576	168.192143537379	111
6	2599	169.501573786153	112
6	2622	170.823909233319	113
6	2645	172.718681807847	114
6	2668	174.353258756278	115
6	2691	175.681527527911	116
6	2714	176.908689317742	117
6	2737	178.085843963498	118
6	2760	179.197517888888	119
6	2783	180.832189515448	120
6	2806	181.901787218585	121
6	2826	183.202006876387	122
6	2849	184.971666955599	123
6	2871	186.040618586878	124
6	2898	187.456368039695	125
6	2921	189.354898579968	126
6	2944	190.895738434621	127
6	2967	192.780135992085	128
6	2990	193.995931983956	129
6	3013	195.601460984854	130
6	3031	197.40809428316	131
6	3059	198.952239869235	132
6	3082	200.824555933087	133
6	3103	201.884157122877	134
6	3125	203.536992668092	135
6	3151	204.952073314026	136
6	3174	206.428108238025	137
6	3197	207.700287000865	138
6	3217	209.000948091958	139
6	3241	210.118715734884	140
6	3261	211.85811218187	141
6	3289	213.364064554537	142
6	3312	214.437246664389	143
6	3335	216.375355602733	144
6	3358	217.624645627298	145
6	3377	218.698892601438	146
6	3404	220.110697203022	147
6	3427	221.232067196086	148
6	3450	222.955896672514	149
6	3473	224.097921637284	150
6	3492	226.060742529455	151
6	3519	227.872981180253	152
6	3542	229.314614645534	153
6	3565	230.569391543375	154
6	3588	231.992392028816	155
6	3611	233.086214791098	156
6	3631	234.994514803126	157
6	3657	236.53973791401	158
6	3678	237.974905818585	159
6	3703	239.469074676756	160

