version 2
run General-2-20231008-06:53:07-16467
attr configname General
attr datetime 20231008-06:53:07
attr experiment General
attr inifile omnetpp.ini
attr iterationvars ""
attr iterationvarsf ""
attr measurement ""
attr network Network2
attr processid 16467
attr repetition 2
attr replication #2
attr resultdir results
attr runnumber 2
attr seedset 2
param Network2.node[*].transmissionTime "uniform(1s, 2s)"
param Network2.node[*].delayTime "uniform(0.01s, 0.2s)"
param Network2.node[*].processingTime exponential(0.01s)
param Network2.node[*].lossProbability 0.0

vector 0 Network2.node[0] txVector ETV
vector 1 Network2.node[1] txVector ETV
vector 2 Network2.node[6] txVector ETV
vector 3 Network2.node[3] txVector ETV
vector 4 Network2.node[2] txVector ETV
vector 5 Network2.node[4] txVector ETV
vector 6 Network2.node[5] rxVector ETV
0	1	0.092839031499	0
0	24	1.277921112972	1
0	47	2.412501055301	2
0	70	3.5942280926	3
0	93	4.981120743109	4
0	116	6.334796116473	5
0	139	8.328648126935	6
0	162	9.846078888066	7
0	185	10.871629833262	8
0	208	12.829475505063	9
0	231	14.628061160231	10
0	254	16.360883647827	11
0	277	17.990243374388	12
0	300	19.495655009541	13
0	323	20.583217518655	14
0	346	21.585800093151	15
0	369	22.750219184458	16
0	392	24.696913308017	17
0	415	26.62281490515	18
0	438	28.405447923131	19
0	461	30.210579463299	20
0	484	32.197884318903	21
0	507	33.979543748097	22
0	530	35.370518010128	23
0	553	37.083839572752	24
0	576	38.672936682608	25
0	599	40.026150578419	26
0	622	41.970809455747	27
0	645	43.258444714612	28
0	668	44.770955513018	29
0	691	45.840616109335	30
0	714	47.614953525151	31
0	737	49.107072621836	32
0	760	51.041142444378	33
0	783	52.367730744668	34
0	806	54.135631525675	35
0	829	55.630993524585	36
0	852	56.719642835222	37
0	875	58.458513685986	38
0	898	60.324071974046	39
0	921	61.986707180757	40
0	944	63.642307498511	41
0	967	65.077430119058	42
0	990	66.515955160623	43
0	1013	67.903594209365	44
0	1036	69.299176201708	45
0	1059	70.605093348324	46
0	1082	72.431890828786	47
0	1105	73.43546426787	48
0	1128	75.225986305177	49
0	1151	76.376114205941	50
0	1174	77.925290339179	51
0	1197	79.508554822551	52
0	1220	81.432777352882	53
0	1243	83.331476671174	54
0	1266	84.95551790229	55
0	1289	86.425290518458	56
0	1312	88.134959332197	57
0	1335	89.244572000363	58
0	1358	91.132006264542	59
0	1381	92.34792245577	60
0	1404	93.882878103777	61
0	1427	95.361886354414	62
0	1450	96.509100807616	63
0	1473	98.379126586271	64
0	1496	99.592163144396	65
0	1519	101.041905283015	66
0	1542	102.427863807436	67
0	1565	103.795797118936	68
0	1588	105.787289026911	69
0	1611	107.078144802265	70
0	1634	108.491530746473	71
0	1657	110.436436535111	72
0	1680	112.425211944869	73
0	1703	113.766781597883	74
0	1726	114.876135206568	75
0	1749	116.252681943375	76
0	1772	117.95793288855	77
0	1795	119.409619586329	78
0	1818	120.896126305704	79
0	1841	122.778037116184	80
0	1864	124.369642456547	81
0	1887	125.908451507353	82
0	1910	127.814315140034	83
0	1933	128.895204924066	84
0	1956	130.692634530384	85
0	1979	132.217584912684	86
0	2002	133.70651524446	87
0	2025	135.272094259057	88
0	2048	136.726523796115	89
0	2071	138.354154871097	90
0	2094	139.803204983957	91
0	2117	140.994065440744	92
0	2140	142.419564648783	93
0	2163	143.624970664289	94
0	2186	145.586906933244	95
0	2209	147.27796256707	96
0	2232	148.346145882755	97
0	2255	149.915928493738	98
0	2278	151.123021021969	99
0	2301	152.959730558581	100
0	2324	154.701673835534	101
0	2347	155.812604976603	102
0	2370	157.575977757591	103
0	2393	158.664419725788	104
0	2416	160.242306980555	105
0	2439	161.521227029868	106
0	2462	163.343853648071	107
0	2485	164.522975657618	108
0	2508	165.88311522642	109
0	2531	167.640118957049	110
0	2554	169.186429349257	111
0	2577	170.849165693874	112
0	2600	172.77601411498	113
0	2623	174.659478768025	114
0	2646	175.793312019919	115
0	2669	176.878846698458	116
0	2692	178.806007340102	117
0	2715	180.063366032688	118
0	2738	181.943344105285	119
0	2761	182.954324540234	120
0	2784	184.774103326275	121
0	2807	185.915352463973	122
0	2830	187.910332477437	123
0	2853	189.059955218592	124
0	2876	190.891523750051	125
0	2899	192.084170094709	126
0	2922	194.035281098466	127
0	2945	195.190301901213	128
0	2968	196.277124230069	129
0	2991	197.432442487934	130
0	3014	198.984999384516	131
0	3037	200.52269152251	132
0	3060	202.419939972013	133
0	3083	204.329867915036	134
0	3106	206.105160774682	135
0	3129	207.834209794198	136
0	3152	209.141930073519	137
0	3175	210.227257955839	138
0	3198	211.23195081602	139
0	3221	213.20630157252	140
0	3244	214.935422669884	141
0	3267	216.641903208822	142
0	3290	218.159908824388	143
0	3313	220.050693865886	144
0	3336	221.392282035455	145
0	3359	222.58019290657	146
0	3382	224.281384948662	147
0	3405	225.821982879678	148
0	3428	226.884834006682	149
0	3451	228.865121998612	150
0	3474	230.437359366121	151
0	3497	231.673031909179	152
0	3520	233.336597489214	153
0	3543	234.934913775905	154
0	3566	235.955280147281	155
0	3589	237.387503346216	156
0	3612	239.235920112833	157
1	3	0.129654214104	0
1	3	0.129654214104	1
1	3	0.129654214104	2
1	3	0.129654214104	3
1	26	1.295127902585	4
1	26	1.295127902585	5
1	26	1.295127902585	6
1	26	1.295127902585	7
1	49	2.429318969677	8
1	49	2.429318969677	9
1	49	2.429318969677	10
1	49	2.429318969677	11
1	72	3.620009299785	12
1	72	3.620009299785	13
1	72	3.620009299785	14
1	72	3.620009299785	15
1	95	4.997428900759	16
1	95	4.997428900759	17
1	95	4.997428900759	18
1	95	4.997428900759	19
1	118	6.380057029097	20
1	118	6.380057029097	21
1	118	6.380057029097	22
1	118	6.380057029097	23
1	141	8.360230515788	24
1	141	8.360230515788	25
1	141	8.360230515788	26
1	141	8.360230515788	27
1	164	9.866931960671	28
1	164	9.866931960671	29
1	164	9.866931960671	30
1	164	9.866931960671	31
1	187	10.897898325865	32
1	187	10.897898325865	33
1	187	10.897898325865	34
1	187	10.897898325865	35
1	210	12.84731378113	36
1	210	12.84731378113	37
1	210	12.84731378113	38
1	210	12.84731378113	39
1	233	14.660730818455	40
1	233	14.660730818455	41
1	233	14.660730818455	42
1	233	14.660730818455	43
1	256	16.374381666941	44
1	256	16.374381666941	45
1	256	16.374381666941	46
1	256	16.374381666941	47
1	279	18.004324480395	48
1	279	18.004324480395	49
1	279	18.004324480395	50
1	279	18.004324480395	51
1	302	19.505965680554	52
1	302	19.505965680554	53
1	302	19.505965680554	54
1	302	19.505965680554	55
1	325	20.598904642541	56
1	325	20.598904642541	57
1	325	20.598904642541	58
1	325	20.598904642541	59
1	348	21.601782594549	60
1	348	21.601782594549	61
1	348	21.601782594549	62
1	348	21.601782594549	63
1	371	22.763696955702	64
1	371	22.763696955702	65
1	371	22.763696955702	66
1	371	22.763696955702	67
1	394	24.715359387695	68
1	394	24.715359387695	69
1	394	24.715359387695	70
1	394	24.715359387695	71
1	417	26.643820862704	72
1	417	26.643820862704	73
1	417	26.643820862704	74
1	417	26.643820862704	75
1	440	28.433355197731	76
1	440	28.433355197731	77
1	440	28.433355197731	78
1	440	28.433355197731	79
1	463	30.220992056981	80
1	463	30.220992056981	81
1	463	30.220992056981	82
1	463	30.220992056981	83
1	486	32.214274860174	84
1	486	32.214274860174	85
1	486	32.214274860174	86
1	486	32.214274860174	87
1	509	33.994430858741	88
1	509	33.994430858741	89
1	509	33.994430858741	90
1	509	33.994430858741	91
1	532	35.402169196495	92
1	532	35.402169196495	93
1	532	35.402169196495	94
1	532	35.402169196495	95
1	555	37.100201477314	96
1	555	37.100201477314	97
1	555	37.100201477314	98
1	555	37.100201477314	99
1	578	38.684737267277	100
1	578	38.684737267277	101
1	578	38.684737267277	102
1	578	38.684737267277	103
1	601	40.038561653824	104
1	601	40.038561653824	105
1	601	40.038561653824	106
1	601	40.038561653824	107
1	624	42.014956274212	108
1	624	42.014956274212	109
1	624	42.014956274212	110
1	624	42.014956274212	111
1	647	43.272402908823	112
1	647	43.272402908823	113
1	647	43.272402908823	114
1	647	43.272402908823	115
1	670	44.80831284582	116
1	670	44.80831284582	117
1	670	44.80831284582	118
1	670	44.80831284582	119
1	693	45.863413531368	120
1	693	45.863413531368	121
1	693	45.863413531368	122
1	693	45.863413531368	123
1	716	47.652745730138	124
1	716	47.652745730138	125
1	716	47.652745730138	126
1	716	47.652745730138	127
1	739	49.119708078922	128
1	739	49.119708078922	129
1	739	49.119708078922	130
1	739	49.119708078922	131
1	762	51.053630775176	132
1	762	51.053630775176	133
1	762	51.053630775176	134
1	762	51.053630775176	135
1	785	52.395709428507	136
1	785	52.395709428507	137
1	785	52.395709428507	138
1	785	52.395709428507	139
1	808	54.149209038996	140
1	808	54.149209038996	141
1	808	54.149209038996	142
1	808	54.149209038996	143
1	831	55.644173642347	144
1	831	55.644173642347	145
1	831	55.644173642347	146
1	831	55.644173642347	147
1	854	56.749404524482	148
1	854	56.749404524482	149
1	854	56.749404524482	150
1	854	56.749404524482	151
1	877	58.478093756603	152
1	877	58.478093756603	153
1	877	58.478093756603	154
1	877	58.478093756603	155
1	900	60.334703009709	156
1	900	60.334703009709	157
1	900	60.334703009709	158
1	900	60.334703009709	159
1	923	62.002823969342	160
1	923	62.002823969342	161
1	923	62.002823969342	162
1	923	62.002823969342	163
1	946	63.676688930029	164
1	946	63.676688930029	165
1	946	63.676688930029	166
1	946	63.676688930029	167
1	969	65.088863112872	168
1	969	65.088863112872	169
1	969	65.088863112872	170
1	969	65.088863112872	171
1	992	66.526479227649	172
1	992	66.526479227649	173
1	992	66.526479227649	174
1	992	66.526479227649	175
1	1015	67.924651701622	176
1	1015	67.924651701622	177
1	1015	67.924651701622	178
1	1015	67.924651701622	179
1	1038	69.321532967149	180
1	1038	69.321532967149	181
1	1038	69.321532967149	182
1	1038	69.321532967149	183
1	1061	70.630617286373	184
1	1061	70.630617286373	185
1	1061	70.630617286373	186
1	1061	70.630617286373	187
1	1084	72.44872799	188
1	1084	72.44872799	189
1	1084	72.44872799	190
1	1084	72.44872799	191
1	1107	73.451054022072	192
1	1107	73.451054022072	193
1	1107	73.451054022072	194
1	1107	73.451054022072	195
1	1130	75.241868445465	196
1	1130	75.241868445465	197
1	1130	75.241868445465	198
1	1130	75.241868445465	199
1	1153	76.392320316134	200
1	1153	76.392320316134	201
1	1153	76.392320316134	202
1	1153	76.392320316134	203
1	1176	77.941382665795	204
1	1176	77.941382665795	205
1	1176	77.941382665795	206
1	1176	77.941382665795	207
1	1199	79.52662651013	208
1	1199	79.52662651013	209
1	1199	79.52662651013	210
1	1199	79.52662651013	211
1	1222	81.45403584827	212
1	1222	81.45403584827	213
1	1222	81.45403584827	214
1	1222	81.45403584827	215
1	1245	83.367042328658	216
1	1245	83.367042328658	217
1	1245	83.367042328658	218
1	1245	83.367042328658	219
1	1268	84.966724154706	220
1	1268	84.966724154706	221
1	1268	84.966724154706	222
1	1268	84.966724154706	223
1	1291	86.447501808183	224
1	1291	86.447501808183	225
1	1291	86.447501808183	226
1	1291	86.447501808183	227
1	1314	88.151321609388	228
1	1314	88.151321609388	229
1	1314	88.151321609388	230
1	1314	88.151321609388	231
1	1337	89.25946598216	232
1	1337	89.25946598216	233
1	1337	89.25946598216	234
1	1337	89.25946598216	235
1	1360	91.146240756132	236
1	1360	91.146240756132	237
1	1360	91.146240756132	238
1	1360	91.146240756132	239
1	1383	92.369737572405	240
1	1383	92.369737572405	241
1	1383	92.369737572405	242
1	1383	92.369737572405	243
1	1406	93.894649170717	244
1	1406	93.894649170717	245
1	1406	93.894649170717	246
1	1406	93.894649170717	247
1	1429	95.373834578754	248
1	1429	95.373834578754	249
1	1429	95.373834578754	250
1	1429	95.373834578754	251
1	1452	96.526092890821	252
1	1452	96.526092890821	253
1	1452	96.526092890821	254
1	1452	96.526092890821	255
1	1475	98.389276286524	256
1	1475	98.389276286524	257
1	1475	98.389276286524	258
1	1475	98.389276286524	259
1	1498	99.608512108057	260
1	1498	99.608512108057	261
1	1498	99.608512108057	262
1	1498	99.608512108057	263
1	1521	101.053598479277	264
1	1521	101.053598479277	265
1	1521	101.053598479277	266
1	1521	101.053598479277	267
1	1544	102.44638138637	268
1	1544	102.44638138637	269
1	1544	102.44638138637	270
1	1544	102.44638138637	271
1	1567	103.813880520034	272
1	1567	103.813880520034	273
1	1567	103.813880520034	274
1	1567	103.813880520034	275
1	1590	105.798221438233	276
1	1590	105.798221438233	277
1	1590	105.798221438233	278
1	1590	105.798221438233	279
1	1613	107.106349231618	280
1	1613	107.106349231618	281
1	1613	107.106349231618	282
1	1613	107.106349231618	283
1	1636	108.52377917295	284
1	1636	108.52377917295	285
1	1636	108.52377917295	286
1	1636	108.52377917295	287
1	1659	110.458072535555	288
1	1659	110.458072535555	289
1	1659	110.458072535555	290
1	1659	110.458072535555	291
1	1682	112.437473731938	292
1	1682	112.437473731938	293
1	1682	112.437473731938	294
1	1682	112.437473731938	295
1	1705	113.791598617718	296
1	1705	113.791598617718	297
1	1705	113.791598617718	298
1	1705	113.791598617718	299
1	1728	114.90432284345	300
1	1728	114.90432284345	301
1	1728	114.90432284345	302
1	1728	114.90432284345	303
1	1751	116.270779287642	304
1	1751	116.270779287642	305
1	1751	116.270779287642	306
1	1751	116.270779287642	307
1	1774	117.972470120807	308
1	1774	117.972470120807	309
1	1774	117.972470120807	310
1	1774	117.972470120807	311
1	1797	119.432058977954	312
1	1797	119.432058977954	313
1	1797	119.432058977954	314
1	1797	119.432058977954	315
1	1820	120.907881208816	316
1	1820	120.907881208816	317
1	1820	120.907881208816	318
1	1820	120.907881208816	319
1	1843	122.791285075366	320
1	1843	122.791285075366	321
1	1843	122.791285075366	322
1	1843	122.791285075366	323
1	1866	124.383789062301	324
1	1866	124.383789062301	325
1	1866	124.383789062301	326
1	1866	124.383789062301	327
1	1889	125.923255252432	328
1	1889	125.923255252432	329
1	1889	125.923255252432	330
1	1889	125.923255252432	331
1	1912	127.832705890006	332
1	1912	127.832705890006	333
1	1912	127.832705890006	334
1	1912	127.832705890006	335
1	1935	128.909716157077	336
1	1935	128.909716157077	337
1	1935	128.909716157077	338
1	1935	128.909716157077	339
1	1958	130.711060553129	340
1	1958	130.711060553129	341
1	1958	130.711060553129	342
1	1958	130.711060553129	343
1	1981	132.232491484571	344
1	1981	132.232491484571	345
1	1981	132.232491484571	346
1	1981	132.232491484571	347
1	2004	133.718171906276	348
1	2004	133.718171906276	349
1	2004	133.718171906276	350
1	2004	133.718171906276	351
1	2027	135.292808332538	352
1	2027	135.292808332538	353
1	2027	135.292808332538	354
1	2027	135.292808332538	355
1	2050	136.740358276566	356
1	2050	136.740358276566	357
1	2050	136.740358276566	358
1	2050	136.740358276566	359
1	2073	138.369364716699	360
1	2073	138.369364716699	361
1	2073	138.369364716699	362
1	2073	138.369364716699	363
1	2096	139.824312758916	364
1	2096	139.824312758916	365
1	2096	139.824312758916	366
1	2096	139.824312758916	367
1	2119	141.00437163004	368
1	2119	141.00437163004	369
1	2119	141.00437163004	370
1	2119	141.00437163004	371
1	2142	142.44857970475	372
1	2142	142.44857970475	373
1	2142	142.44857970475	374
1	2142	142.44857970475	375
1	2165	143.635682582699	376
1	2165	143.635682582699	377
1	2165	143.635682582699	378
1	2165	143.635682582699	379
1	2188	145.611405500711	380
1	2188	145.611405500711	381
1	2188	145.611405500711	382
1	2188	145.611405500711	383
1	2211	147.297542017306	384
1	2211	147.297542017306	385
1	2211	147.297542017306	386
1	2211	147.297542017306	387
1	2234	148.356553618558	388
1	2234	148.356553618558	389
1	2234	148.356553618558	390
1	2234	148.356553618558	391
1	2257	149.959530621444	392
1	2257	149.959530621444	393
1	2257	149.959530621444	394
1	2257	149.959530621444	395
1	2280	151.134600797794	396
1	2280	151.134600797794	397
1	2280	151.134600797794	398
1	2280	151.134600797794	399
1	2303	152.978476436347	400
1	2303	152.978476436347	401
1	2303	152.978476436347	402
1	2303	152.978476436347	403
1	2326	154.719083042787	404
1	2326	154.719083042787	405
1	2326	154.719083042787	406
1	2326	154.719083042787	407
1	2349	155.826972658086	408
1	2349	155.826972658086	409
1	2349	155.826972658086	410
1	2349	155.826972658086	411
1	2372	157.59196285486	412
1	2372	157.59196285486	413
1	2372	157.59196285486	414
1	2372	157.59196285486	415
1	2395	158.689789779761	416
1	2395	158.689789779761	417
1	2395	158.689789779761	418
1	2395	158.689789779761	419
1	2418	160.277879320805	420
1	2418	160.277879320805	421
1	2418	160.277879320805	422
1	2418	160.277879320805	423
1	2441	161.543163754777	424
1	2441	161.543163754777	425
1	2441	161.543163754777	426
1	2441	161.543163754777	427
1	2464	163.359021733201	428
1	2464	163.359021733201	429
1	2464	163.359021733201	430
1	2464	163.359021733201	431
1	2487	164.550991671203	432
1	2487	164.550991671203	433
1	2487	164.550991671203	434
1	2487	164.550991671203	435
1	2510	165.893731639615	436
1	2510	165.893731639615	437
1	2510	165.893731639615	438
1	2510	165.893731639615	439
1	2533	167.653086415371	440
1	2533	167.653086415371	441
1	2533	167.653086415371	442
1	2533	167.653086415371	443
1	2556	169.202126678548	444
1	2556	169.202126678548	445
1	2556	169.202126678548	446
1	2556	169.202126678548	447
1	2579	170.874609072439	448
1	2579	170.874609072439	449
1	2579	170.874609072439	450
1	2579	170.874609072439	451
1	2602	172.804776952525	452
1	2602	172.804776952525	453
1	2602	172.804776952525	454
1	2602	172.804776952525	455
1	2625	174.67141680206	456
1	2625	174.67141680206	457
1	2625	174.67141680206	458
1	2625	174.67141680206	459
1	2648	175.804967576827	460
1	2648	175.804967576827	461
1	2648	175.804967576827	462
1	2648	175.804967576827	463
1	2671	176.889947095775	464
1	2671	176.889947095775	465
1	2671	176.889947095775	466
1	2671	176.889947095775	467
1	2694	178.824717531159	468
1	2694	178.824717531159	469
1	2694	178.824717531159	470
1	2694	178.824717531159	471
1	2717	180.073910658178	472
1	2717	180.073910658178	473
1	2717	180.073910658178	474
1	2717	180.073910658178	475
1	2740	181.958451200877	476
1	2740	181.958451200877	477
1	2740	181.958451200877	478
1	2740	181.958451200877	479
1	2763	182.973632620226	480
1	2763	182.973632620226	481
1	2763	182.973632620226	482
1	2763	182.973632620226	483
1	2786	184.824304963253	484
1	2786	184.824304963253	485
1	2786	184.824304963253	486
1	2786	184.824304963253	487
1	2809	185.948634671527	488
1	2809	185.948634671527	489
1	2809	185.948634671527	490
1	2809	185.948634671527	491
1	2832	187.920737997775	492
1	2832	187.920737997775	493
1	2832	187.920737997775	494
1	2832	187.920737997775	495
1	2855	189.084816363886	496
1	2855	189.084816363886	497
1	2855	189.084816363886	498
1	2855	189.084816363886	499
1	2878	190.903628248415	500
1	2878	190.903628248415	501
1	2878	190.903628248415	502
1	2878	190.903628248415	503
1	2901	192.097901270705	504
1	2901	192.097901270705	505
1	2901	192.097901270705	506
1	2901	192.097901270705	507
1	2924	194.053256685969	508
1	2924	194.053256685969	509
1	2924	194.053256685969	510
1	2924	194.053256685969	511
1	2947	195.202017113149	512
1	2947	195.202017113149	513
1	2947	195.202017113149	514
1	2947	195.202017113149	515
1	2970	196.296423146527	516
1	2970	196.296423146527	517
1	2970	196.296423146527	518
1	2970	196.296423146527	519
1	2993	197.456673923282	520
1	2993	197.456673923282	521
1	2993	197.456673923282	522
1	2993	197.456673923282	523
1	3016	198.995773766487	524
1	3016	198.995773766487	525
1	3016	198.995773766487	526
1	3016	198.995773766487	527
1	3039	200.535035192999	528
1	3039	200.535035192999	529
1	3039	200.535035192999	530
1	3039	200.535035192999	531
1	3062	202.432108100613	532
1	3062	202.432108100613	533
1	3062	202.432108100613	534
1	3062	202.432108100613	535
1	3085	204.341988039921	536
1	3085	204.341988039921	537
1	3085	204.341988039921	538
1	3085	204.341988039921	539
1	3108	206.137202748369	540
1	3108	206.137202748369	541
1	3108	206.137202748369	542
1	3108	206.137202748369	543
1	3131	207.868110192344	544
1	3131	207.868110192344	545
1	3131	207.868110192344	546
1	3131	207.868110192344	547
1	3154	209.163363212073	548
1	3154	209.163363212073	549
1	3154	209.163363212073	550
1	3154	209.163363212073	551
1	3177	210.239003153974	552
1	3177	210.239003153974	553
1	3177	210.239003153974	554
1	3177	210.239003153974	555
1	3200	211.245025625913	556
1	3200	211.245025625913	557
1	3200	211.245025625913	558
1	3200	211.245025625913	559
1	3223	213.216851962111	560
1	3223	213.216851962111	561
1	3223	213.216851962111	562
1	3223	213.216851962111	563
1	3246	214.95039144531	564
1	3246	214.95039144531	565
1	3246	214.95039144531	566
1	3246	214.95039144531	567
1	3269	216.654875530083	568
1	3269	216.654875530083	569
1	3269	216.654875530083	570
1	3269	216.654875530083	571
1	3292	218.176687688112	572
1	3292	218.176687688112	573
1	3292	218.176687688112	574
1	3292	218.176687688112	575
1	3315	220.069337020846	576
1	3315	220.069337020846	577
1	3315	220.069337020846	578
1	3315	220.069337020846	579
1	3338	221.42125807759	580
1	3338	221.42125807759	581
1	3338	221.42125807759	582
1	3338	221.42125807759	583
1	3361	222.591746818669	584
1	3361	222.591746818669	585
1	3361	222.591746818669	586
1	3361	222.591746818669	587
1	3384	224.297911035202	588
1	3384	224.297911035202	589
1	3384	224.297911035202	590
1	3384	224.297911035202	591
1	3407	225.835748226179	592
1	3407	225.835748226179	593
1	3407	225.835748226179	594
1	3407	225.835748226179	595
1	3430	226.905444972732	596
1	3430	226.905444972732	597
1	3430	226.905444972732	598
1	3430	226.905444972732	599
1	3453	228.899225942731	600
1	3453	228.899225942731	601
1	3453	228.899225942731	602
1	3453	228.899225942731	603
1	3476	230.453674678774	604
1	3476	230.453674678774	605
1	3476	230.453674678774	606
1	3476	230.453674678774	607
1	3499	231.693110207191	608
1	3499	231.693110207191	609
1	3499	231.693110207191	610
1	3499	231.693110207191	611
1	3522	233.352356501192	612
1	3522	233.352356501192	613
1	3522	233.352356501192	614
1	3522	233.352356501192	615
1	3545	234.959754208228	616
1	3545	234.959754208228	617
1	3545	234.959754208228	618
1	3545	234.959754208228	619
1	3568	235.971762252391	620
1	3568	235.971762252391	621
1	3568	235.971762252391	622
1	3568	235.971762252391	623
1	3591	237.402206473673	624
1	3591	237.402206473673	625
1	3591	237.402206473673	626
1	3591	237.402206473673	627
1	3614	239.274528641761	628
1	3614	239.274528641761	629
1	3614	239.274528641761	630
1	3614	239.274528641761	631
2	8	0.143663988337	0
2	8	0.143663988337	1
2	32	1.313029050879	2
2	32	1.313029050879	3
2	55	2.441807509762	4
2	55	2.441807509762	5
2	87	3.649133736609	6
2	87	3.649133736609	7
2	100	5.008285513692	8
2	100	5.008285513692	9
2	123	6.396615962238	10
2	123	6.396615962238	11
2	156	8.388069434784	12
2	156	8.388069434784	13
2	170	9.89444013262	14
2	170	9.89444013262	15
2	194	10.918730086036	16
2	194	10.918730086036	17
2	220	12.87331958314	18
2	220	12.87331958314	19
2	239	14.678669509351	20
2	239	14.678669509351	21
2	262	16.399743166125	22
2	262	16.399743166125	23
2	285	18.016775847042	24
2	285	18.016775847042	25
2	312	19.533084007496	26
2	312	19.533084007496	27
2	330	20.614846981435	28
2	330	20.614846981435	29
2	354	21.611891191311	30
2	354	21.611891191311	31
2	377	22.773952199878	32
2	377	22.773952199878	33
2	399	24.730166597487	34
2	399	24.730166597487	35
2	422	26.65522952621	36
2	422	26.65522952621	37
2	446	28.457481592747	38
2	446	28.457481592747	39
2	469	30.23634459353	40
2	469	30.23634459353	41
2	492	32.234522436454	42
2	492	32.234522436454	43
2	516	34.006648542407	44
2	516	34.006648542407	45
2	546	35.433669698414	46
2	546	35.433669698414	47
2	561	37.123431661049	48
2	561	37.123431661049	49
2	588	38.707721138715	50
2	588	38.707721138715	51
2	616	40.077107560186	52
2	616	40.077107560186	53
2	630	42.031254931415	54
2	630	42.031254931415	55
2	654	43.285336244815	56
2	654	43.285336244815	57
2	676	44.82250705621	58
2	676	44.82250705621	59
2	699	45.880819469732	60
2	699	45.880819469732	61
2	722	47.669269244265	62
2	722	47.669269244265	63
2	750	49.146985366067	64
2	750	49.146985366067	65
2	767	51.069786902961	66
2	767	51.069786902961	67
2	800	52.426579333952	68
2	800	52.426579333952	69
2	813	54.160661652478	70
2	813	54.160661652478	71
2	840	55.672267737504	72
2	840	55.672267737504	73
2	860	56.765596203223	74
2	860	56.765596203223	75
2	882	58.492688797762	76
2	882	58.492688797762	77
2	906	60.352142067551	78
2	906	60.352142067551	79
2	937	62.038698445386	80
2	937	62.038698445386	81
2	953	63.691448553867	82
2	953	63.691448553867	83
2	975	65.10782503037	84
2	975	65.10782503037	85
2	998	66.54052547845	86
2	998	66.54052547845	87
2	1025	67.953236599222	88
2	1025	67.953236599222	89
2	1044	69.334808668481	90
2	1044	69.334808668481	91
2	1066	70.641701485819	92
2	1066	70.641701485819	93
2	1089	72.466480636722	94
2	1089	72.466480636722	95
2	1114	73.470859978851	96
2	1114	73.470859978851	97
2	1136	75.258596869791	98
2	1136	75.258596869791	99
2	1158	76.40237619511	100
2	1158	76.40237619511	101
2	1181	77.956323847348	102
2	1181	77.956323847348	103
2	1205	79.540693313315	104
2	1205	79.540693313315	105
2	1237	81.485173237631	106
2	1237	81.485173237631	107
2	1263	83.421909489457	108
2	1263	83.421909489457	109
2	1273	84.978611110119	110
2	1273	84.978611110119	111
2	1296	86.460088904056	112
2	1296	86.460088904056	113
2	1332	88.195787484546	114
2	1332	88.195787484546	115
2	1343	89.281550542164	116
2	1343	89.281550542164	117
2	1367	91.162444908835	118
2	1367	91.162444908835	119
2	1389	92.38513370823	120
2	1389	92.38513370823	121
2	1412	93.912268104835	122
2	1412	93.912268104835	123
2	1434	95.38558064151	124
2	1434	95.38558064151	125
2	1467	96.562071274639	126
2	1467	96.562071274639	127
2	1489	98.424497436511	128
2	1489	98.424497436511	129
2	1504	99.628033413715	130
2	1504	99.628033413715	131
2	1539	101.092116407888	132
2	1539	101.092116407888	133
2	1549	102.458973044637	134
2	1549	102.458973044637	135
2	1572	103.825157497612	136
2	1572	103.825157497612	137
2	1595	105.810144781291	138
2	1595	105.810144781291	139
2	1619	107.11886159493	140
2	1619	107.11886159493	141
2	1642	108.538787083999	142
2	1642	108.538787083999	143
2	1669	110.4830122769	144
2	1669	110.4830122769	145
2	1687	112.447983557015	146
2	1687	112.447983557015	147
2	1715	113.811944022583	148
2	1715	113.811944022583	149
2	1734	114.917192454786	150
2	1734	114.917192454786	151
2	1758	116.290813707894	152
2	1758	116.290813707894	153
2	1779	117.985415086716	154
2	1779	117.985415086716	155
2	1802	119.447869574628	156
2	1802	119.447869574628	157
2	1825	120.918155084308	158
2	1825	120.918155084308	159
2	1849	122.807816732054	160
2	1849	122.807816732054	161
2	1871	124.39983915255	162
2	1871	124.39983915255	163
2	1899	125.950213703443	164
2	1899	125.950213703443	165
2	1923	127.854473318732	166
2	1923	127.854473318732	167
2	1941	128.931415075629	168
2	1941	128.931415075629	169
2	1963	130.725162809071	170
2	1963	130.725162809071	171
2	1987	132.246551213488	172
2	1987	132.246551213488	173
2	2009	133.73041433407	174
2	2009	133.73041433407	175
2	2034	135.310534977694	176
2	2034	135.310534977694	177
2	2056	136.758830694707	178
2	2056	136.758830694707	179
2	2079	138.380338975965	180
2	2079	138.380338975965	181
2	2103	139.846795588773	182
2	2103	139.846795588773	183
2	2124	141.014558754949	184
2	2124	141.014558754949	185
2	2147	142.459904121939	186
2	2147	142.459904121939	187
2	2170	143.645758417255	188
2	2170	143.645758417255	189
2	2194	145.630257589478	190
2	2194	145.630257589478	191
2	2229	147.350039403755	192
2	2229	147.350039403755	193
2	2252	148.420534513983	194
2	2252	148.420534513983	195
2	2263	149.973733701751	196
2	2263	149.973733701751	197
2	2285	151.145391352428	198
2	2285	151.145391352428	199
2	2318	153.011987358561	200
2	2318	153.011987358561	201
2	2331	154.741958239409	202
2	2331	154.741958239409	203
2	2355	155.84000101697	204
2	2355	155.84000101697	205
2	2377	157.613576435915	206
2	2377	157.613576435915	207
2	2400	158.702159500772	208
2	2400	158.702159500772	209
2	2425	160.292729493978	210
2	2425	160.292729493978	211
2	2452	161.565497075987	212
2	2452	161.565497075987	213
2	2471	163.400866429832	214
2	2471	163.400866429832	215
2	2492	164.569833530248	216
2	2492	164.569833530248	217
2	2516	165.912628080844	218
2	2516	165.912628080844	219
2	2538	167.663710992075	220
2	2538	167.663710992075	221
2	2562	169.214969118688	222
2	2562	169.214969118688	223
2	2586	170.896920430485	224
2	2586	170.896920430485	225
2	2612	172.835650285802	226
2	2612	172.835650285802	227
2	2631	174.683664274654	228
2	2631	174.683664274654	229
2	2663	175.838817589282	230
2	2663	175.838817589282	231
2	2676	176.902635984609	232
2	2676	176.902635984609	233
2	2701	178.83932530808	234
2	2701	178.83932530808	235
2	2724	180.098771941422	236
2	2724	180.098771941422	237
2	2747	181.97954734008	238
2	2747	181.97954734008	239
2	2769	182.984801258089	240
2	2769	182.984801258089	241
2	2792	184.845999979532	242
2	2792	184.845999979532	243
2	2815	185.961043915471	244
2	2815	185.961043915471	245
2	2846	187.956077267298	246
2	2846	187.956077267298	247
2	2861	189.103451367839	248
2	2861	189.103451367839	249
2	2888	190.925551464435	250
2	2888	190.925551464435	251
2	2906	192.108176739538	252
2	2906	192.108176739538	253
2	2930	194.072200844152	254
2	2930	194.072200844152	255
2	2953	195.221109784425	256
2	2953	195.221109784425	257
2	2977	196.314882597435	258
2	2977	196.314882597435	259
2	2998	197.470716240335	260
2	2998	197.470716240335	261
2	3021	199.009904251895	262
2	3021	199.009904251895	263
2	3044	200.549447800262	264
2	3044	200.549447800262	265
2	3068	202.460014583957	266
2	3068	202.460014583957	267
2	3091	204.358186733837	268
2	3091	204.358186733837	269
2	3114	206.149733904699	270
2	3114	206.149733904699	271
2	3141	207.89371851079	272
2	3141	207.89371851079	273
2	3160	209.177293636032	274
2	3160	209.177293636032	275
2	3182	210.251717425757	276
2	3182	210.251717425757	277
2	3207	211.270963997715	278
2	3207	211.270963997715	279
2	3228	213.232510110488	280
2	3228	213.232510110488	281
2	3261	214.984828704441	282
2	3261	214.984828704441	283
2	3278	216.682418932103	284
2	3278	216.682418932103	285
2	3297	218.188015572624	286
2	3297	218.188015572624	287
2	3320	220.084648016648	288
2	3320	220.084648016648	289
2	3343	221.435781414427	290
2	3343	221.435781414427	291
2	3366	222.60179827921	292
2	3366	222.60179827921	293
2	3391	224.314024436488	294
2	3391	224.314024436488	295
2	3419	225.864499571941	296
2	3419	225.864499571941	297
2	3436	226.922886168583	298
2	3436	226.922886168583	299
2	3458	228.913704885797	300
2	3458	228.913704885797	301
2	3481	230.465762563627	302
2	3481	230.465762563627	303
2	3509	231.717144077998	304
2	3509	231.717144077998	305
2	3529	233.367183160138	306
2	3529	233.367183160138	307
2	3550	234.977245937757	308
2	3550	234.977245937757	309
2	3574	235.985162980682	310
2	3574	235.985162980682	311
2	3597	237.420798742358	312
2	3597	237.420798742358	313
2	3619	239.289515403481	314
2	3619	239.289515403481	315
3	9	0.145107829276	0
3	9	0.145107829276	1
3	9	0.145107829276	2
3	31	1.308118677885	3
3	31	1.308118677885	4
3	31	1.308118677885	5
3	54	2.440450048442	6
3	54	2.440450048442	7
3	54	2.440450048442	8
3	78	3.631617618382	9
3	78	3.631617618382	10
3	78	3.631617618382	11
3	101	5.015286091309	12
3	101	5.015286091309	13
3	101	5.015286091309	14
3	125	6.402317236671	15
3	125	6.402317236671	16
3	125	6.402317236671	17
3	147	8.375122623034	18
3	147	8.375122623034	19
3	147	8.375122623034	20
3	175	9.901521493014	21
3	175	9.901521493014	22
3	175	9.901521493014	23
3	193	10.918222132156	24
3	193	10.918222132156	25
3	193	10.918222132156	26
3	221	12.873775377961	27
3	221	12.873775377961	28
3	221	12.873775377961	29
3	238	14.67744988546	30
3	238	14.67744988546	31
3	238	14.67744988546	32
3	268	16.405583498265	33
3	268	16.405583498265	34
3	268	16.405583498265	35
3	292	18.034737917535	36
3	292	18.034737917535	37
3	292	18.034737917535	38
3	314	19.540118238395	39
3	314	19.540118238395	40
3	314	19.540118238395	41
3	339	20.639622132428	42
3	339	20.639622132428	43
3	339	20.639622132428	44
3	355	21.616451336738	45
3	355	21.616451336738	46
3	355	21.616451336738	47
3	376	22.773781798248	48
3	376	22.773781798248	49
3	376	22.773781798248	50
3	407	24.744911706175	51
3	407	24.744911706175	52
3	407	24.744911706175	53
3	425	26.670750098971	54
3	425	26.670750098971	55
3	425	26.670750098971	56
3	445	28.44861796903	57
3	445	28.44861796903	58
3	445	28.44861796903	59
3	470	30.240836252874	60
3	470	30.240836252874	61
3	470	30.240836252874	62
3	493	32.23480433564	63
3	493	32.23480433564	64
3	493	32.23480433564	65
3	514	34.005256397545	66
3	514	34.005256397545	67
3	514	34.005256397545	68
3	538	35.419478206844	69
3	538	35.419478206844	70
3	538	35.419478206844	71
3	560	37.122048165456	72
3	560	37.122048165456	73
3	560	37.122048165456	74
3	583	38.697434211745	75
3	583	38.697434211745	76
3	583	38.697434211745	77
3	607	40.050755215191	78
3	607	40.050755215191	79
3	607	40.050755215191	80
3	629	42.028701577498	81
3	629	42.028701577498	82
3	629	42.028701577498	83
3	653	43.285327152092	84
3	653	43.285327152092	85
3	653	43.285327152092	86
3	684	44.84370150865	87
3	684	44.84370150865	88
3	684	44.84370150865	89
3	700	45.882857586612	90
3	700	45.882857586612	91
3	700	45.882857586612	92
3	723	47.672722565651	93
3	723	47.672722565651	94
3	723	47.672722565651	95
3	754	49.153126137943	96
3	754	49.153126137943	97
3	754	49.153126137943	98
3	769	51.076632143037	99
3	769	51.076632143037	100
3	769	51.076632143037	101
3	791	52.409129762064	102
3	791	52.409129762064	103
3	791	52.409129762064	104
3	814	54.161530925483	105
3	814	54.161530925483	106
3	814	54.161530925483	107
3	836	55.659067076308	108
3	836	55.659067076308	109
3	836	55.659067076308	110
3	871	56.836916548435	111
3	871	56.836916548435	112
3	871	56.836916548435	113
3	884	58.501733642205	114
3	884	58.501733642205	115
3	884	58.501733642205	116
3	905	60.347480738086	117
3	905	60.347480738086	118
3	905	60.347480738086	119
3	928	62.01285737952	120
3	928	62.01285737952	121
3	928	62.01285737952	122
3	951	63.687212957636	123
3	951	63.687212957636	124
3	951	63.687212957636	125
3	974	65.106660553213	126
3	974	65.106660553213	127
3	974	65.106660553213	128
3	997	66.537978844097	129
3	997	66.537978844097	130
3	997	66.537978844097	131
3	1020	67.940171760334	132
3	1020	67.940171760334	133
3	1020	67.940171760334	134
3	1043	69.334605553109	135
3	1043	69.334605553109	136
3	1043	69.334605553109	137
3	1067	70.646840628528	138
3	1067	70.646840628528	139
3	1067	70.646840628528	140
3	1090	72.466732768863	141
3	1090	72.466732768863	142
3	1090	72.466732768863	143
3	1113	73.467457072705	144
3	1113	73.467457072705	145
3	1113	73.467457072705	146
3	1135	75.253871959858	147
3	1135	75.253871959858	148
3	1135	75.253871959858	149
3	1159	76.403616411079	150
3	1159	76.403616411079	151
3	1159	76.403616411079	152
3	1183	77.96031703561	153
3	1183	77.96031703561	154
3	1183	77.96031703561	155
3	1206	79.546920508247	156
3	1206	79.546920508247	157
3	1206	79.546920508247	158
3	1227	81.467865024723	159
3	1227	81.467865024723	160
3	1227	81.467865024723	161
3	1250	83.378543781828	162
3	1250	83.378543781828	163
3	1250	83.378543781828	164
3	1274	84.983333249873	165
3	1274	84.983333249873	166
3	1274	84.983333249873	167
3	1300	86.470554722339	168
3	1300	86.470554722339	169
3	1300	86.470554722339	170
3	1320	88.162595572939	171
3	1320	88.162595572939	172
3	1320	88.162595572939	173
3	1342	89.276588876486	174
3	1342	89.276588876486	175
3	1342	89.276588876486	176
3	1365	91.158832274211	177
3	1365	91.158832274211	178
3	1365	91.158832274211	179
3	1394	92.392579496079	180
3	1394	92.392579496079	181
3	1394	92.392579496079	182
3	1411	93.91022719942	183
3	1411	93.91022719942	184
3	1411	93.91022719942	185
3	1438	95.415334963902	186
3	1438	95.415334963902	187
3	1438	95.415334963902	188
3	1457	96.538041616099	189
3	1457	96.538041616099	190
3	1457	96.538041616099	191
3	1480	98.401743885852	192
3	1480	98.401743885852	193
3	1480	98.401743885852	194
3	1505	99.631209291505	195
3	1505	99.631209291505	196
3	1505	99.631209291505	197
3	1526	101.064383498423	198
3	1526	101.064383498423	199
3	1526	101.064383498423	200
3	1553	102.470234070385	201
3	1553	102.470234070385	202
3	1553	102.470234070385	203
3	1573	103.826666848313	204
3	1573	103.826666848313	205
3	1573	103.826666848313	206
3	1597	105.814822897538	207
3	1597	105.814822897538	208
3	1597	105.814822897538	209
3	1618	107.117373888757	210
3	1618	107.117373888757	211
3	1618	107.117373888757	212
3	1649	108.553421032142	213
3	1649	108.553421032142	214
3	1649	108.553421032142	215
3	1670	110.489383648371	216
3	1670	110.489383648371	217
3	1670	110.489383648371	218
3	1695	112.46306469927	219
3	1695	112.46306469927	220
3	1695	112.46306469927	221
3	1710	113.801620732543	222
3	1710	113.801620732543	223
3	1710	113.801620732543	224
3	1742	114.93238283561	225
3	1742	114.93238283561	226
3	1742	114.93238283561	227
3	1757	116.288556734257	228
3	1757	116.288556734257	229
3	1757	116.288556734257	230
3	1781	117.990066752931	231
3	1781	117.990066752931	232
3	1781	117.990066752931	233
3	1810	119.467953127982	234
3	1810	119.467953127982	235
3	1810	119.467953127982	236
3	1833	120.931865910158	237
3	1833	120.931865910158	238
3	1833	120.931865910158	239
3	1848	122.803170141785	240
3	1848	122.803170141785	241
3	1848	122.803170141785	242
3	1875	124.414144519069	243
3	1875	124.414144519069	244
3	1875	124.414144519069	245
3	1901	125.957828614079	246
3	1901	125.957828614079	247
3	1901	125.957828614079	248
3	1918	127.848405411451	249
3	1918	127.848405411451	250
3	1918	127.848405411451	251
3	1942	128.932455030457	252
3	1942	128.932455030457	253
3	1942	128.932455030457	254
3	1965	130.728312731144	255
3	1965	130.728312731144	256
3	1965	130.728312731144	257
3	1998	132.288563486561	258
3	1998	132.288563486561	259
3	1998	132.288563486561	260
3	2010	133.735550034491	261
3	2010	133.735550034491	262
3	2010	133.735550034491	263
3	2032	135.304603241804	264
3	2032	135.304603241804	265
3	2032	135.304603241804	266
3	2055	136.754556248947	267
3	2055	136.754556248947	268
3	2055	136.754556248947	269
3	2078	138.37992402899	270
3	2078	138.37992402899	271
3	2078	138.37992402899	272
3	2101	139.841704975126	273
3	2101	139.841704975126	274
3	2101	139.841704975126	275
3	2128	141.029516089219	276
3	2128	141.029516089219	277
3	2128	141.029516089219	278
3	2149	142.464652496098	279
3	2149	142.464652496098	280
3	2149	142.464652496098	281
3	2179	143.673215285767	282
3	2179	143.673215285767	283
3	2179	143.673215285767	284
3	2195	145.634522303621	285
3	2195	145.634522303621	286
3	2195	145.634522303621	287
3	2217	147.314279745977	288
3	2217	147.314279745977	289
3	2217	147.314279745977	290
3	2245	148.385499023574	291
3	2245	148.385499023574	292
3	2245	148.385499023574	293
3	2264	149.975314659182	294
3	2264	149.975314659182	295
3	2264	149.975314659182	296
3	2286	151.150552422946	297
3	2286	151.150552422946	298
3	2286	151.150552422946	299
3	2308	152.9917338807	300
3	2308	152.9917338807	301
3	2308	152.9917338807	302
3	2332	154.745010535608	303
3	2332	154.745010535608	304
3	2332	154.745010535608	305
3	2356	155.845876383734	306
3	2356	155.845876383734	307
3	2356	155.845876383734	308
3	2385	157.625191644152	309
3	2385	157.625191644152	310
3	2385	157.625191644152	311
3	2408	158.718681163977	312
3	2408	158.718681163977	313
3	2408	158.718681163977	314
3	2423	160.289689786327	315
3	2423	160.289689786327	316
3	2423	160.289689786327	317
3	2447	161.555639118422	318
3	2447	161.555639118422	319
3	2447	161.555639118422	320
3	2469	163.391548082769	321
3	2469	163.391548082769	322
3	2469	163.391548082769	323
3	2500	164.604680199071	324
3	2500	164.604680199071	325
3	2500	164.604680199071	326
3	2521	165.922055819935	327
3	2521	165.922055819935	328
3	2521	165.922055819935	329
3	2541	167.673980440827	330
3	2541	167.673980440827	331
3	2541	167.673980440827	332
3	2563	169.221532781573	333
3	2563	169.221532781573	334
3	2563	169.221532781573	335
3	2584	170.889564535691	336
3	2584	170.889564535691	337
3	2584	170.889564535691	338
3	2607	172.818636784443	339
3	2607	172.818636784443	340
3	2607	172.818636784443	341
3	2630	174.683426777267	342
3	2630	174.683426777267	343
3	2630	174.683426777267	344
3	2653	175.818272150625	345
3	2653	175.818272150625	346
3	2653	175.818272150625	347
3	2677	176.907479140311	348
3	2677	176.907479140311	349
3	2677	176.907479140311	350
3	2700	178.8379655288	351
3	2700	178.8379655288	352
3	2700	178.8379655288	353
3	2722	180.089935830729	354
3	2722	180.089935830729	355
3	2722	180.089935830729	356
3	2745	181.975627300497	357
3	2745	181.975627300497	358
3	2745	181.975627300497	359
3	2776	183.019660012205	360
3	2776	183.019660012205	361
3	2776	183.019660012205	362
3	2800	184.859061220394	363
3	2800	184.859061220394	364
3	2800	184.859061220394	365
3	2822	185.972036677814	366
3	2822	185.972036677814	367
3	2822	185.972036677814	368
3	2837	187.934988017987	369
3	2837	187.934988017987	370
3	2837	187.934988017987	371
3	2862	189.107415511923	372
3	2862	189.107415511923	373
3	2862	189.107415511923	374
3	2883	190.913862578583	375
3	2883	190.913862578583	376
3	2883	190.913862578583	377
3	2907	192.109680398933	378
3	2907	192.109680398933	379
3	2907	192.109680398933	380
3	2929	194.065839930362	381
3	2929	194.065839930362	382
3	2929	194.065839930362	383
3	2960	195.232351818619	384
3	2960	195.232351818619	385
3	2960	195.232351818619	386
3	2975	196.310234659375	387
3	2975	196.310234659375	388
3	2975	196.310234659375	389
3	2999	197.471827687259	390
3	2999	197.471827687259	391
3	2999	197.471827687259	392
3	3030	199.028156263188	393
3	3030	199.028156263188	394
3	3030	199.028156263188	395
3	3048	200.580126280488	396
3	3048	200.580126280488	397
3	3048	200.580126280488	398
3	3067	202.450095291814	399
3	3067	202.450095291814	400
3	3067	202.450095291814	401
3	3090	204.353088613812	402
3	3090	204.353088613812	403
3	3090	204.353088613812	404
3	3115	206.154017236551	405
3	3115	206.154017236551	406
3	3115	206.154017236551	407
3	3142	207.89485160543	408
3	3142	207.89485160543	409
3	3142	207.89485160543	410
3	3159	209.175302060833	411
3	3159	209.175302060833	412
3	3159	209.175302060833	413
3	3185	210.262777033831	414
3	3185	210.262777033831	415
3	3185	210.262777033831	416
3	3205	211.265339979374	417
3	3205	211.265339979374	418
3	3205	211.265339979374	419
3	3237	213.256124601238	420
3	3237	213.256124601238	421
3	3237	213.256124601238	422
3	3252	214.972735948167	423
3	3252	214.972735948167	424
3	3252	214.972735948167	425
3	3274	216.666654099515	426
3	3274	216.666654099515	427
3	3274	216.666654099515	428
3	3298	218.19177015641	429
3	3298	218.19177015641	430
3	3298	218.19177015641	431
3	3321	220.093561905813	432
3	3321	220.093561905813	433
3	3321	220.093561905813	434
3	3344	221.436449380111	435
3	3344	221.436449380111	436
3	3344	221.436449380111	437
3	3374	222.621599251113	438
3	3374	222.621599251113	439
3	3374	222.621599251113	440
3	3389	224.309303902967	441
3	3389	224.309303902967	442
3	3389	224.309303902967	443
3	3413	225.856637750024	444
3	3413	225.856637750024	445
3	3413	225.856637750024	446
3	3442	226.928608785885	447
3	3442	226.928608785885	448
3	3442	226.928608785885	449
3	3462	228.936008337301	450
3	3462	228.936008337301	451
3	3462	228.936008337301	452
3	3483	230.469666157755	453
3	3483	230.469666157755	454
3	3483	230.469666157755	455
3	3510	231.718704852783	456
3	3510	231.718704852783	457
3	3510	231.718704852783	458
3	3527	233.362439902267	459
3	3527	233.362439902267	460
3	3527	233.362439902267	461
3	3553	234.987246922218	462
3	3553	234.987246922218	463
3	3553	234.987246922218	464
3	3582	236.007326435573	465
3	3582	236.007326435573	466
3	3582	236.007326435573	467
3	3596	237.413939201209	468
3	3596	237.413939201209	469
3	3596	237.413939201209	470
3	3620	239.28977427077	471
3	3620	239.28977427077	472
3	3620	239.28977427077	473
4	10	0.145369217285	0
4	10	0.145369217285	1
4	10	0.145369217285	2
4	10	0.145369217285	3
4	33	1.317848785726	4
4	33	1.317848785726	5
4	33	1.317848785726	6
4	33	1.317848785726	7
4	56	2.441880958811	8
4	56	2.441880958811	9
4	56	2.441880958811	10
4	56	2.441880958811	11
4	77	3.631281780659	12
4	77	3.631281780659	13
4	77	3.631281780659	14
4	77	3.631281780659	15
4	108	5.038164157406	16
4	108	5.038164157406	17
4	108	5.038164157406	18
4	108	5.038164157406	19
4	124	6.402165057756	20
4	124	6.402165057756	21
4	124	6.402165057756	22
4	124	6.402165057756	23
4	146	8.373238118007	24
4	146	8.373238118007	25
4	146	8.373238118007	26
4	146	8.373238118007	27
4	169	9.891520106219	28
4	169	9.891520106219	29
4	169	9.891520106219	30
4	169	9.891520106219	31
4	192	10.913289778473	32
4	192	10.913289778473	33
4	192	10.913289778473	34
4	192	10.913289778473	35
4	215	12.8597447746	36
4	215	12.8597447746	37
4	215	12.8597447746	38
4	215	12.8597447746	39
4	240	14.679677513985	40
4	240	14.679677513985	41
4	240	14.679677513985	42
4	240	14.679677513985	43
4	261	16.391614827473	44
4	261	16.391614827473	45
4	261	16.391614827473	46
4	261	16.391614827473	47
4	284	18.016085488654	48
4	284	18.016085488654	49
4	284	18.016085488654	50
4	284	18.016085488654	51
4	307	19.520918249696	52
4	307	19.520918249696	53
4	307	19.520918249696	54
4	307	19.520918249696	55
4	331	20.618456376396	56
4	331	20.618456376396	57
4	331	20.618456376396	58
4	331	20.618456376396	59
4	353	21.611882814133	60
4	353	21.611882814133	61
4	353	21.611882814133	62
4	353	21.611882814133	63
4	384	22.786275864679	64
4	384	22.786275864679	65
4	384	22.786275864679	66
4	384	22.786275864679	67
4	400	24.731182400334	68
4	400	24.731182400334	69
4	400	24.731182400334	70
4	400	24.731182400334	71
4	429	26.682142700755	72
4	429	26.682142700755	73
4	429	26.682142700755	74
4	429	26.682142700755	75
4	447	28.457502327019	76
4	447	28.457502327019	77
4	447	28.457502327019	78
4	447	28.457502327019	79
4	468	30.233587672197	80
4	468	30.233587672197	81
4	468	30.233587672197	82
4	468	30.233587672197	83
4	491	32.228424913962	84
4	491	32.228424913962	85
4	491	32.228424913962	86
4	491	32.228424913962	87
4	515	34.006363359577	88
4	515	34.006363359577	89
4	515	34.006363359577	90
4	515	34.006363359577	91
4	537	35.413548548777	92
4	537	35.413548548777	93
4	537	35.413548548777	94
4	537	35.413548548777	95
4	562	37.127697148466	96
4	562	37.127697148466	97
4	562	37.127697148466	98
4	562	37.127697148466	99
4	584	38.698126356867	100
4	584	38.698126356867	101
4	584	38.698126356867	102
4	584	38.698126356867	103
4	606	40.049569511752	104
4	606	40.049569511752	105
4	606	40.049569511752	106
4	606	40.049569511752	107
4	636	42.048592648012	108
4	636	42.048592648012	109
4	636	42.048592648012	110
4	636	42.048592648012	111
4	652	43.282497861934	112
4	652	43.282497861934	113
4	652	43.282497861934	114
4	652	43.282497861934	115
4	675	44.82244936061	116
4	675	44.82244936061	117
4	675	44.82244936061	118
4	675	44.82244936061	119
4	698	45.878297256016	120
4	698	45.878297256016	121
4	698	45.878297256016	122
4	698	45.878297256016	123
4	721	47.666112540488	124
4	721	47.666112540488	125
4	721	47.666112540488	126
4	721	47.666112540488	127
4	744	49.13074468325	128
4	744	49.13074468325	129
4	744	49.13074468325	130
4	744	49.13074468325	131
4	768	51.07035351022	132
4	768	51.07035351022	133
4	768	51.07035351022	134
4	768	51.07035351022	135
4	790	52.408569387298	136
4	790	52.408569387298	137
4	790	52.408569387298	138
4	790	52.408569387298	139
4	820	54.182579734441	140
4	820	54.182579734441	141
4	820	54.182579734441	142
4	820	54.182579734441	143
4	841	55.678201002221	144
4	841	55.678201002221	145
4	841	55.678201002221	146
4	841	55.678201002221	147
4	859	56.763813009444	148
4	859	56.763813009444	149
4	859	56.763813009444	150
4	859	56.763813009444	151
4	883	58.495998908813	152
4	883	58.495998908813	153
4	883	58.495998908813	154
4	883	58.495998908813	155
4	910	60.361306831253	156
4	910	60.361306831253	157
4	910	60.361306831253	158
4	910	60.361306831253	159
4	933	62.03396736012	160
4	933	62.03396736012	161
4	933	62.03396736012	162
4	933	62.03396736012	163
4	952	63.689479282628	164
4	952	63.689479282628	165
4	952	63.689479282628	166
4	952	63.689479282628	167
4	976	65.107870741279	168
4	976	65.107870741279	169
4	976	65.107870741279	170
4	976	65.107870741279	171
4	1005	66.552812366603	172
4	1005	66.552812366603	173
4	1005	66.552812366603	174
4	1005	66.552812366603	175
4	1021	67.948287480684	176
4	1021	67.948287480684	177
4	1021	67.948287480684	178
4	1021	67.948287480684	179
4	1045	69.336188376457	180
4	1045	69.336188376457	181
4	1045	69.336188376457	182
4	1045	69.336188376457	183
4	1074	70.667172398248	184
4	1074	70.667172398248	185
4	1074	70.667172398248	186
4	1074	70.667172398248	187
4	1091	72.473551185001	188
4	1091	72.473551185001	189
4	1091	72.473551185001	190
4	1091	72.473551185001	191
4	1112	73.462904645856	192
4	1112	73.462904645856	193
4	1112	73.462904645856	194
4	1112	73.462904645856	195
4	1141	75.267924448982	196
4	1141	75.267924448982	197
4	1141	75.267924448982	198
4	1141	75.267924448982	199
4	1162	76.412757031265	200
4	1162	76.412757031265	201
4	1162	76.412757031265	202
4	1162	76.412757031265	203
4	1182	77.958536206588	204
4	1182	77.958536206588	205
4	1182	77.958536206588	206
4	1182	77.958536206588	207
4	1204	79.538076153242	208
4	1204	79.538076153242	209
4	1204	79.538076153242	210
4	1204	79.538076153242	211
4	1228	81.473780181618	212
4	1228	81.473780181618	213
4	1228	81.473780181618	214
4	1228	81.473780181618	215
4	1251	83.382887069925	216
4	1251	83.382887069925	217
4	1251	83.382887069925	218
4	1251	83.382887069925	219
4	1277	84.989343476304	220
4	1277	84.989343476304	221
4	1277	84.989343476304	222
4	1277	84.989343476304	223
4	1297	86.466402670189	224
4	1297	86.466402670189	225
4	1297	86.466402670189	226
4	1297	86.466402670189	227
4	1319	88.161342253095	228
4	1319	88.161342253095	229
4	1319	88.161342253095	230
4	1319	88.161342253095	231
4	1350	89.293129048303	232
4	1350	89.293129048303	233
4	1350	89.293129048303	234
4	1350	89.293129048303	235
4	1366	91.161452803876	236
4	1366	91.161452803876	237
4	1366	91.161452803876	238
4	1366	91.161452803876	239
4	1388	92.381692638315	240
4	1388	92.381692638315	241
4	1388	92.381692638315	242
4	1388	92.381692638315	243
4	1413	93.913512879902	244
4	1413	93.913512879902	245
4	1413	93.913512879902	246
4	1413	93.913512879902	247
4	1437	95.41171055056	248
4	1437	95.41171055056	249
4	1437	95.41171055056	250
4	1437	95.41171055056	251
4	1458	96.547377085919	252
4	1458	96.547377085919	253
4	1458	96.547377085919	254
4	1458	96.547377085919	255
4	1481	98.404617827036	256
4	1481	98.404617827036	257
4	1481	98.404617827036	258
4	1481	98.404617827036	259
4	1503	99.622438533128	260
4	1503	99.622438533128	261
4	1503	99.622438533128	262
4	1503	99.622438533128	263
4	1527	101.064514221826	264
4	1527	101.064514221826	265
4	1527	101.064514221826	266
4	1527	101.064514221826	267
4	1550	102.463967821437	268
4	1550	102.463967821437	269
4	1550	102.463967821437	270
4	1550	102.463967821437	271
4	1574	103.833053671293	272
4	1574	103.833053671293	273
4	1574	103.833053671293	274
4	1574	103.833053671293	275
4	1596	105.81148501199	276
4	1596	105.81148501199	277
4	1596	105.81148501199	278
4	1596	105.81148501199	279
4	1620	107.121792520733	280
4	1620	107.121792520733	281
4	1620	107.121792520733	282
4	1620	107.121792520733	283
4	1641	108.535061095365	284
4	1641	108.535061095365	285
4	1641	108.535061095365	286
4	1641	108.535061095365	287
4	1664	110.472673477963	288
4	1664	110.472673477963	289
4	1664	110.472673477963	290
4	1664	110.472673477963	291
4	1688	112.449018247007	292
4	1688	112.449018247007	293
4	1688	112.449018247007	294
4	1688	112.449018247007	295
4	1711	113.80581738408	296
4	1711	113.80581738408	297
4	1711	113.80581738408	298
4	1711	113.80581738408	299
4	1733	114.915365914127	300
4	1733	114.915365914127	301
4	1733	114.915365914127	302
4	1733	114.915365914127	303
4	1756	116.281483277958	304
4	1756	116.281483277958	305
4	1756	116.281483277958	306
4	1756	116.281483277958	307
4	1780	117.987127757658	308
4	1780	117.987127757658	309
4	1780	117.987127757658	310
4	1780	117.987127757658	311
4	1803	119.448156968051	312
4	1803	119.448156968051	313
4	1803	119.448156968051	314
4	1803	119.448156968051	315
4	1826	120.919710918241	316
4	1826	120.919710918241	317
4	1826	120.919710918241	318
4	1826	120.919710918241	319
4	1850	122.808416380014	320
4	1850	122.808416380014	321
4	1850	122.808416380014	322
4	1850	122.808416380014	323
4	1872	124.409150754733	324
4	1872	124.409150754733	325
4	1872	124.409150754733	326
4	1872	124.409150754733	327
4	1894	125.934136683015	328
4	1894	125.934136683015	329
4	1894	125.934136683015	330
4	1894	125.934136683015	331
4	1917	127.84354053135	332
4	1917	127.84354053135	333
4	1917	127.84354053135	334
4	1917	127.84354053135	335
4	1940	128.922788416524	336
4	1940	128.922788416524	337
4	1940	128.922788416524	338
4	1940	128.922788416524	339
4	1964	130.725239754185	340
4	1964	130.725239754185	341
4	1964	130.725239754185	342
4	1964	130.725239754185	343
4	1986	132.245143161706	344
4	1986	132.245143161706	345
4	1986	132.245143161706	346
4	1986	132.245143161706	347
4	2013	133.742064120483	348
4	2013	133.742064120483	349
4	2013	133.742064120483	350
4	2013	133.742064120483	351
4	2033	135.307843084449	352
4	2033	135.307843084449	353
4	2033	135.307843084449	354
4	2033	135.307843084449	355
4	2066	136.78081471017	356
4	2066	136.78081471017	357
4	2066	136.78081471017	358
4	2066	136.78081471017	359
4	2085	138.397212808654	360
4	2085	138.397212808654	361
4	2085	138.397212808654	362
4	2085	138.397212808654	363
4	2102	139.843345548034	364
4	2102	139.843345548034	365
4	2102	139.843345548034	366
4	2102	139.843345548034	367
4	2125	141.019990263046	368
4	2125	141.019990263046	369
4	2125	141.019990263046	370
4	2125	141.019990263046	371
4	2148	142.46118693996	372
4	2148	142.46118693996	373
4	2148	142.46118693996	374
4	2148	142.46118693996	375
4	2171	143.64917111998	376
4	2171	143.64917111998	377
4	2171	143.64917111998	378
4	2171	143.64917111998	379
4	2193	145.627556532003	380
4	2193	145.627556532003	381
4	2193	145.627556532003	382
4	2193	145.627556532003	383
4	2216	147.313588042307	384
4	2216	147.313588042307	385
4	2216	147.313588042307	386
4	2216	147.313588042307	387
4	2239	148.373752642006	388
4	2239	148.373752642006	389
4	2239	148.373752642006	390
4	2239	148.373752642006	391
4	2262	149.970659046143	392
4	2262	149.970659046143	393
4	2262	149.970659046143	394
4	2262	149.970659046143	395
4	2293	151.162803276885	396
4	2293	151.162803276885	397
4	2293	151.162803276885	398
4	2293	151.162803276885	399
4	2309	152.992103565166	400
4	2309	152.992103565166	401
4	2309	152.992103565166	402
4	2309	152.992103565166	403
4	2333	154.746378577612	404
4	2333	154.746378577612	405
4	2333	154.746378577612	406
4	2333	154.746378577612	407
4	2354	155.839022856916	408
4	2354	155.839022856916	409
4	2354	155.839022856916	410
4	2354	155.839022856916	411
4	2378	157.614458695641	412
4	2378	157.614458695641	413
4	2378	157.614458695641	414
4	2378	157.614458695641	415
4	2401	158.706249008519	416
4	2401	158.706249008519	417
4	2401	158.706249008519	418
4	2401	158.706249008519	419
4	2424	160.292124863435	420
4	2424	160.292124863435	421
4	2424	160.292124863435	422
4	2424	160.292124863435	423
4	2446	161.554219777798	424
4	2446	161.554219777798	425
4	2446	161.554219777798	426
4	2446	161.554219777798	427
4	2470	163.391743266295	428
4	2470	163.391743266295	429
4	2470	163.391743266295	430
4	2470	163.391743266295	431
4	2495	164.586314803198	432
4	2495	164.586314803198	433
4	2495	164.586314803198	434
4	2495	164.586314803198	435
4	2515	165.905167248985	436
4	2515	165.905167248985	437
4	2515	165.905167248985	438
4	2515	165.905167248985	439
4	2542	167.682176526112	440
4	2542	167.682176526112	441
4	2542	167.682176526112	442
4	2542	167.682176526112	443
4	2561	169.213521714142	444
4	2561	169.213521714142	445
4	2561	169.213521714142	446
4	2561	169.213521714142	447
4	2585	170.893553489671	448
4	2585	170.893553489671	449
4	2585	170.893553489671	450
4	2585	170.893553489671	451
4	2618	172.849882364843	452
4	2618	172.849882364843	453
4	2618	172.849882364843	454
4	2618	172.849882364843	455
4	2632	174.689604485224	456
4	2632	174.689604485224	457
4	2632	174.689604485224	458
4	2632	174.689604485224	459
4	2654	175.821899102198	460
4	2654	175.821899102198	461
4	2654	175.821899102198	462
4	2654	175.821899102198	463
4	2683	176.931074679907	464
4	2683	176.931074679907	465
4	2683	176.931074679907	466
4	2683	176.931074679907	467
4	2699	178.835671260864	468
4	2699	178.835671260864	469
4	2699	178.835671260864	470
4	2699	178.835671260864	471
4	2723	180.098050593888	472
4	2723	180.098050593888	473
4	2723	180.098050593888	474
4	2723	180.098050593888	475
4	2746	181.97869939284	476
4	2746	181.97869939284	477
4	2746	181.97869939284	478
4	2746	181.97869939284	479
4	2768	182.984180361291	480
4	2768	182.984180361291	481
4	2768	182.984180361291	482
4	2768	182.984180361291	483
4	2791	184.842693435898	484
4	2791	184.842693435898	485
4	2791	184.842693435898	486
4	2791	184.842693435898	487
4	2814	185.960454109594	488
4	2814	185.960454109594	489
4	2814	185.960454109594	490
4	2814	185.960454109594	491
4	2838	187.937590475692	492
4	2838	187.937590475692	493
4	2838	187.937590475692	494
4	2838	187.937590475692	495
4	2860	189.103247493864	496
4	2860	189.103247493864	497
4	2860	189.103247493864	498
4	2860	189.103247493864	499
4	2884	190.92006675967	500
4	2884	190.92006675967	501
4	2884	190.92006675967	502
4	2884	190.92006675967	503
4	2913	192.130342810281	504
4	2913	192.130342810281	505
4	2913	192.130342810281	506
4	2913	192.130342810281	507
4	2936	194.084315052811	508
4	2936	194.084315052811	509
4	2936	194.084315052811	510
4	2936	194.084315052811	511
4	2952	195.216910736349	512
4	2952	195.216910736349	513
4	2952	195.216910736349	514
4	2952	195.216910736349	515
4	2976	196.3108989507	516
4	2976	196.3108989507	517
4	2976	196.3108989507	518
4	2976	196.3108989507	519
4	3000	197.473289227818	520
4	3000	197.473289227818	521
4	3000	197.473289227818	522
4	3000	197.473289227818	523
4	3022	199.012552226749	524
4	3022	199.012552226749	525
4	3022	199.012552226749	526
4	3022	199.012552226749	527
4	3047	200.578416210277	528
4	3047	200.578416210277	529
4	3047	200.578416210277	530
4	3047	200.578416210277	531
4	3073	202.465868150093	532
4	3073	202.465868150093	533
4	3073	202.465868150093	534
4	3073	202.465868150093	535
4	3098	204.368696916874	536
4	3098	204.368696916874	537
4	3098	204.368696916874	538
4	3098	204.368696916874	539
4	3113	206.147537044862	540
4	3113	206.147537044862	541
4	3113	206.147537044862	542
4	3113	206.147537044862	543
4	3136	207.880676452589	544
4	3136	207.880676452589	545
4	3136	207.880676452589	546
4	3136	207.880676452589	547
4	3161	209.180422885449	548
4	3161	209.180422885449	549
4	3161	209.180422885449	550
4	3161	209.180422885449	551
4	3186	210.266934670002	552
4	3186	210.266934670002	553
4	3186	210.266934670002	554
4	3186	210.266934670002	555
4	3206	211.267028937133	556
4	3206	211.267028937133	557
4	3206	211.267028937133	558
4	3206	211.267028937133	559
4	3229	213.234507318987	560
4	3229	213.234507318987	561
4	3229	213.234507318987	562
4	3229	213.234507318987	563
4	3251	214.972655256522	564
4	3251	214.972655256522	565
4	3251	214.972655256522	566
4	3251	214.972655256522	567
4	3279	216.684341704936	568
4	3279	216.684341704936	569
4	3279	216.684341704936	570
4	3279	216.684341704936	571
4	3299	218.191928744258	572
4	3299	218.191928744258	573
4	3299	218.191928744258	574
4	3299	218.191928744258	575
4	3324	220.100790983906	576
4	3324	220.100790983906	577
4	3324	220.100790983906	578
4	3324	220.100790983906	579
4	3347	221.445965812855	580
4	3347	221.445965812855	581
4	3347	221.445965812855	582
4	3347	221.445965812855	583
4	3367	222.609118507361	584
4	3367	222.609118507361	585
4	3367	222.609118507361	586
4	3367	222.609118507361	587
4	3390	224.313089286629	588
4	3390	224.313089286629	589
4	3390	224.313089286629	590
4	3390	224.313089286629	591
4	3412	225.848855483477	592
4	3412	225.848855483477	593
4	3412	225.848855483477	594
4	3412	225.848855483477	595
4	3435	226.916409890931	596
4	3435	226.916409890931	597
4	3435	226.916409890931	598
4	3435	226.916409890931	599
4	3461	228.929825217168	600
4	3461	228.929825217168	601
4	3461	228.929825217168	602
4	3461	228.929825217168	603
4	3482	230.467160863186	604
4	3482	230.467160863186	605
4	3482	230.467160863186	606
4	3482	230.467160863186	607
4	3504	231.705207652004	608
4	3504	231.705207652004	609
4	3504	231.705207652004	610
4	3504	231.705207652004	611
4	3528	233.365664713049	612
4	3528	233.365664713049	613
4	3528	233.365664713049	614
4	3528	233.365664713049	615
4	3558	235.006410885452	616
4	3558	235.006410885452	617
4	3558	235.006410885452	618
4	3558	235.006410885452	619
4	3573	235.984000862901	620
4	3573	235.984000862901	621
4	3573	235.984000862901	622
4	3573	235.984000862901	623
4	3601	237.428998076348	624
4	3601	237.428998076348	625
4	3601	237.428998076348	626
4	3601	237.428998076348	627
4	3627	239.321077388257	628
4	3627	239.321077388257	629
4	3627	239.321077388257	630
4	3627	239.321077388257	631
5	20	0.15866964675	0
5	20	0.15866964675	1
5	20	0.15866964675	2
5	37	1.320066481838	3
5	37	1.320066481838	4
5	37	1.320066481838	5
5	66	2.456757172495	6
5	66	2.456757172495	7
5	66	2.456757172495	8
5	86	3.643731454335	9
5	86	3.643731454335	10
5	86	3.643731454335	11
5	107	5.030499482418	12
5	107	5.030499482418	13
5	107	5.030499482418	14
5	135	6.416064040043	15
5	135	6.416064040043	16
5	135	6.416064040043	17
5	155	8.38800575132	18
5	155	8.38800575132	19
5	155	8.38800575132	20
5	178	9.911485429416	21
5	178	9.911485429416	22
5	178	9.911485429416	23
5	204	10.944631056245	24
5	204	10.944631056245	25
5	204	10.944631056245	26
5	227	12.892296613409	27
5	227	12.892296613409	28
5	227	12.892296613409	29
5	250	14.690271010389	30
5	250	14.690271010389	31
5	250	14.690271010389	32
5	267	16.404814647162	33
5	267	16.404814647162	34
5	267	16.404814647162	35
5	293	18.036670384714	36
5	293	18.036670384714	37
5	293	18.036670384714	38
5	313	19.535353663261	39
5	313	19.535353663261	40
5	313	19.535353663261	41
5	338	20.634336580047	42
5	338	20.634336580047	43
5	338	20.634336580047	44
5	362	21.62466893792	45
5	362	21.62466893792	46
5	362	21.62466893792	47
5	383	22.784859186665	48
5	383	22.784859186665	49
5	383	22.784859186665	50
5	408	24.74673321927	51
5	408	24.74673321927	52
5	408	24.74673321927	53
5	434	26.700952889038	54
5	434	26.700952889038	55
5	434	26.700952889038	56
5	457	28.478730583756	57
5	457	28.478730583756	58
5	457	28.478730583756	59
5	480	30.2538725407	60
5	480	30.2538725407	61
5	480	30.2538725407	62
5	503	32.252297993235	63
5	503	32.252297993235	64
5	503	32.252297993235	65
5	526	34.025523363873	66
5	526	34.025523363873	67
5	526	34.025523363873	68
5	547	35.436570395127	69
5	547	35.436570395127	70
5	547	35.436570395127	71
5	572	37.162312173602	72
5	572	37.162312173602	73
5	572	37.162312173602	74
5	593	38.709664349605	75
5	593	38.709664349605	76
5	593	38.709664349605	77
5	615	40.072625906002	78
5	615	40.072625906002	79
5	615	40.072625906002	80
5	641	42.058944936379	81
5	641	42.058944936379	82
5	641	42.058944936379	83
5	664	43.296728756468	84
5	664	43.296728756468	85
5	664	43.296728756468	86
5	683	44.834710348084	87
5	683	44.834710348084	88
5	683	44.834710348084	89
5	710	45.914859961745	90
5	710	45.914859961745	91
5	710	45.914859961745	92
5	730	47.682665722959	93
5	730	47.682665722959	94
5	730	47.682665722959	95
5	749	49.142911258665	96
5	749	49.142911258665	97
5	749	49.142911258665	98
5	776	51.083913422977	99
5	776	51.083913422977	100
5	776	51.083913422977	101
5	799	52.419530492903	102
5	799	52.419530492903	103
5	799	52.419530492903	104
5	825	54.244419847358	105
5	825	54.244419847358	106
5	825	54.244419847358	107
5	848	55.693373394943	108
5	848	55.693373394943	109
5	848	55.693373394943	110
5	867	56.809810845408	111
5	867	56.809810845408	112
5	867	56.809810845408	113
5	891	58.508330532267	114
5	891	58.508330532267	115
5	891	58.508330532267	116
5	917	60.373677085388	117
5	917	60.373677085388	118
5	917	60.373677085388	119
5	932	62.024540803004	120
5	932	62.024540803004	121
5	932	62.024540803004	122
5	957	63.697455317928	123
5	957	63.697455317928	124
5	957	63.697455317928	125
5	986	65.131399923994	126
5	986	65.131399923994	127
5	986	65.131399923994	128
5	1004	66.552154139202	129
5	1004	66.552154139202	130
5	1004	66.552154139202	131
5	1032	67.967259677826	132
5	1032	67.967259677826	133
5	1032	67.967259677826	134
5	1055	69.353539228348	135
5	1055	69.353539228348	136
5	1055	69.353539228348	137
5	1073	70.660542534146	138
5	1073	70.660542534146	139
5	1073	70.660542534146	140
5	1097	72.480570485752	141
5	1097	72.480570485752	142
5	1097	72.480570485752	143
5	1119	73.476562137532	144
5	1119	73.476562137532	145
5	1119	73.476562137532	146
5	1140	75.266850601675	147
5	1140	75.266850601675	148
5	1140	75.266850601675	149
5	1166	76.416396621539	150
5	1166	76.416396621539	151
5	1166	76.416396621539	152
5	1193	78.002652317976	153
5	1193	78.002652317976	154
5	1193	78.002652317976	155
5	1213	79.552865648926	156
5	1213	79.552865648926	157
5	1213	79.552865648926	158
5	1232	81.47919634098	159
5	1232	81.47919634098	160
5	1232	81.47919634098	161
5	1259	83.398209968743	162
5	1259	83.398209968743	163
5	1259	83.398209968743	164
5	1285	85.023836344495	165
5	1285	85.023836344495	166
5	1285	85.023836344495	167
5	1308	86.482248172542	168
5	1308	86.482248172542	169
5	1308	86.482248172542	170
5	1328	88.18169121465	171
5	1328	88.18169121465	172
5	1328	88.18169121465	173
5	1347	89.289958472024	174
5	1347	89.289958472024	175
5	1347	89.289958472024	176
5	1377	91.181512008509	177
5	1377	91.181512008509	178
5	1377	91.181512008509	179
5	1397	92.400964813833	180
5	1397	92.400964813833	181
5	1397	92.400964813833	182
5	1423	93.941279319351	183
5	1423	93.941279319351	184
5	1423	93.941279319351	185
5	1446	95.430858470976	186
5	1446	95.430858470976	187
5	1446	95.430858470976	188
5	1462	96.553751890566	189
5	1462	96.553751890566	190
5	1462	96.553751890566	191
5	1492	98.442073233373	192
5	1492	98.442073233373	193
5	1492	98.442073233373	194
5	1510	99.633613382375	195
5	1510	99.633613382375	196
5	1510	99.633613382375	197
5	1535	101.076364419585	198
5	1535	101.076364419585	199
5	1535	101.076364419585	200
5	1561	102.484748514515	201
5	1561	102.484748514515	202
5	1561	102.484748514515	203
5	1580	103.840891394453	204
5	1580	103.840891394453	205
5	1580	103.840891394453	206
5	1607	105.82772501566	207
5	1607	105.82772501566	208
5	1607	105.82772501566	209
5	1630	107.139321687241	210
5	1630	107.139321687241	211
5	1630	107.139321687241	212
5	1650	108.557664634895	213
5	1650	108.557664634895	214
5	1650	108.557664634895	215
5	1673	110.495895486225	216
5	1673	110.495895486225	217
5	1673	110.495895486225	218
5	1696	112.467831736308	219
5	1696	112.467831736308	220
5	1696	112.467831736308	221
5	1720	113.81658013492	222
5	1720	113.81658013492	223
5	1720	113.81658013492	224
5	1741	114.931935669236	225
5	1741	114.931935669236	226
5	1741	114.931935669236	227
5	1763	116.291774258159	228
5	1763	116.291774258159	229
5	1763	116.291774258159	230
5	1788	117.997570828316	231
5	1788	117.997570828316	232
5	1788	117.997570828316	233
5	1811	119.471028463481	234
5	1811	119.471028463481	235
5	1811	119.471028463481	236
5	1834	120.932115764167	237
5	1834	120.932115764167	238
5	1834	120.932115764167	239
5	1854	122.815576599513	240
5	1854	122.815576599513	241
5	1854	122.815576599513	242
5	1883	124.429109544664	243
5	1883	124.429109544664	244
5	1883	124.429109544664	245
5	1900	125.955188211288	246
5	1900	125.955188211288	247
5	1900	125.955188211288	248
5	1924	127.856318576388	249
5	1924	127.856318576388	250
5	1924	127.856318576388	251
5	1952	128.961971897227	252
5	1952	128.961971897227	253
5	1952	128.961971897227	254
5	1975	130.750003265247	255
5	1975	130.750003265247	256
5	1975	130.750003265247	257
5	1994	132.25958917396	258
5	1994	132.25958917396	259
5	1994	132.25958917396	260
5	2017	133.749713628313	261
5	2017	133.749713628313	262
5	2017	133.749713628313	263
5	2038	135.315106120239	264
5	2038	135.315106120239	265
5	2038	135.315106120239	266
5	2062	136.770564204312	267
5	2062	136.770564204312	268
5	2062	136.770564204312	269
5	2086	138.405424703863	270
5	2086	138.405424703863	271
5	2086	138.405424703863	272
5	2113	139.86331288671	273
5	2113	139.86331288671	274
5	2113	139.86331288671	275
5	2133	141.036463945526	276
5	2133	141.036463945526	277
5	2133	141.036463945526	278
5	2156	142.474059609847	279
5	2156	142.474059609847	280
5	2156	142.474059609847	281
5	2178	143.667026647182	282
5	2178	143.667026647182	283
5	2178	143.667026647182	284
5	2202	145.642162678338	285
5	2202	145.642162678338	286
5	2202	145.642162678338	287
5	2225	147.324901635246	288
5	2225	147.324901635246	289
5	2225	147.324901635246	290
5	2244	148.384210302269	291
5	2244	148.384210302269	292
5	2244	148.384210302269	293
5	2271	149.985154019492	294
5	2271	149.985154019492	295
5	2271	149.985154019492	296
5	2292	151.162609554793	297
5	2292	151.162609554793	298
5	2292	151.162609554793	299
5	2317	153.004245395584	300
5	2317	153.004245395584	301
5	2317	153.004245395584	302
5	2339	154.756211669034	303
5	2339	154.756211669034	304
5	2339	154.756211669034	305
5	2363	155.851996634594	306
5	2363	155.851996634594	307
5	2363	155.851996634594	308
5	2389	157.640046734216	309
5	2389	157.640046734216	310
5	2389	157.640046734216	311
5	2409	158.720028258139	312
5	2409	158.720028258139	313
5	2409	158.720028258139	314
5	2435	160.322461960841	315
5	2435	160.322461960841	316
5	2435	160.322461960841	317
5	2456	161.566666430484	318
5	2456	161.566666430484	319
5	2456	161.566666430484	320
5	2481	163.416064286796	321
5	2481	163.416064286796	322
5	2481	163.416064286796	323
5	2501	164.608999619891	324
5	2501	164.608999619891	325
5	2501	164.608999619891	326
5	2527	165.937177738677	327
5	2527	165.937177738677	328
5	2527	165.937177738677	329
5	2550	167.725972857245	330
5	2550	167.725972857245	331
5	2550	167.725972857245	332
5	2568	169.223756135768	333
5	2568	169.223756135768	334
5	2568	169.223756135768	335
5	2590	170.899730542264	336
5	2590	170.899730542264	337
5	2590	170.899730542264	338
5	2611	172.831714714428	339
5	2611	172.831714714428	340
5	2611	172.831714714428	341
5	2642	174.71214536177	342
5	2642	174.71214536177	343
5	2642	174.71214536177	344
5	2662	175.837921148495	345
5	2662	175.837921148495	346
5	2662	175.837921148495	347
5	2688	176.944275957603	348
5	2688	176.944275957603	349
5	2688	176.944275957603	350
5	2706	178.847947391818	351
5	2706	178.847947391818	352
5	2706	178.847947391818	353
5	2734	180.112889878181	354
5	2734	180.112889878181	355
5	2734	180.112889878181	356
5	2757	181.990938810117	357
5	2757	181.990938810117	358
5	2757	181.990938810117	359
5	2777	183.02452632198	360
5	2777	183.02452632198	361
5	2777	183.02452632198	362
5	2799	184.856121421639	363
5	2799	184.856121421639	364
5	2799	184.856121421639	365
5	2823	185.974247417078	366
5	2823	185.974247417078	367
5	2823	185.974247417078	368
5	2847	187.962299167169	369
5	2847	187.962299167169	370
5	2847	187.962299167169	371
5	2872	189.125299813682	372
5	2872	189.125299813682	373
5	2872	189.125299813682	374
5	2895	190.936029675263	375
5	2895	190.936029675263	376
5	2895	190.936029675263	377
5	2914	192.137017442654	378
5	2914	192.137017442654	379
5	2914	192.137017442654	380
5	2937	194.086539098136	381
5	2937	194.086539098136	382
5	2937	194.086539098136	383
5	2964	195.245268695218	384
5	2964	195.245268695218	385
5	2964	195.245268695218	386
5	2985	196.322091866842	387
5	2985	196.322091866842	388
5	2985	196.322091866842	389
5	3010	197.483332685313	390
5	3010	197.483332685313	391
5	3010	197.483332685313	392
5	3029	199.023559869318	393
5	3029	199.023559869318	394
5	3029	199.023559869318	395
5	3056	200.59171041634	396
5	3056	200.59171041634	397
5	3056	200.59171041634	398
5	3072	202.464777060819	399
5	3072	202.464777060819	400
5	3072	202.464777060819	401
5	3095	204.363172007858	402
5	3095	204.363172007858	403
5	3095	204.363172007858	404
5	3125	206.167784402219	405
5	3125	206.167784402219	406
5	3125	206.167784402219	407
5	3143	207.89942495499	408
5	3143	207.89942495499	409
5	3143	207.89942495499	410
5	3171	209.20361974307	411
5	3171	209.20361974307	412
5	3171	209.20361974307	413
5	3190	210.276143604978	414
5	3190	210.276143604978	415
5	3190	210.276143604978	416
5	3217	211.28283727263	417
5	3217	211.28283727263	418
5	3217	211.28283727263	419
5	3236	213.247172673666	420
5	3236	213.247172673666	421
5	3236	213.247172673666	422
5	3260	214.982889289332	423
5	3260	214.982889289332	424
5	3260	214.982889289332	425
5	3280	216.686930823491	426
5	3280	216.686930823491	427
5	3280	216.686930823491	428
5	3309	218.203485198281	429
5	3309	218.203485198281	430
5	3309	218.203485198281	431
5	3328	220.107784212904	432
5	3328	220.107784212904	433
5	3328	220.107784212904	434
5	3351	221.450266691903	435
5	3351	221.450266691903	436
5	3351	221.450266691903	437
5	3378	222.638083585737	438
5	3378	222.638083585737	439
5	3378	222.638083585737	440
5	3395	224.319705083203	441
5	3395	224.319705083203	442
5	3395	224.319705083203	443
5	3418	225.860922689637	444
5	3418	225.860922689637	445
5	3418	225.860922689637	446
5	3441	226.927952931213	447
5	3441	226.927952931213	448
5	3441	226.927952931213	449
5	3470	228.946298098462	450
5	3470	228.946298098462	451
5	3470	228.946298098462	452
5	3493	230.480780578749	453
5	3493	230.480780578749	454
5	3493	230.480780578749	455
5	3511	231.71987478151	456
5	3511	231.71987478151	457
5	3511	231.71987478151	458
5	3539	233.382668667822	459
5	3539	233.382668667822	460
5	3539	233.382668667822	461
5	3557	234.998949068943	462
5	3557	234.998949068943	463
5	3557	234.998949068943	464
5	3581	235.998737195474	465
5	3581	235.998737195474	466
5	3581	235.998737195474	467
5	3608	237.44149218149	468
5	3608	237.44149218149	469
5	3608	237.44149218149	470
5	3626	239.312630188562	471
5	3626	239.312630188562	472
5	3626	239.312630188562	473
6	23	0.16866964675	0
6	46	1.330066481838	1
6	69	2.466757172495	2
6	90	3.653731454335	3
6	111	5.040499482418	4
6	138	6.426064040043	5
6	159	8.39800575132	6
6	184	9.921485429416	7
6	207	10.954631056245	8
6	230	12.902296613409	9
6	253	14.700271010389	10
6	273	16.414814647162	11
6	299	18.046670384714	12
6	319	19.545353663261	13
6	342	20.644336580047	14
6	368	21.63466893792	15
6	387	22.794859186665	16
6	414	24.75673321927	17
6	437	26.710952889038	18
6	460	28.488730583756	19
6	483	30.2638725407	20
6	506	32.262297993235	21
6	529	34.035523363873	22
6	552	35.446570395127	23
6	575	37.172312173602	24
6	598	38.719664349605	25
6	619	40.082625906002	26
6	644	42.068944936379	27
6	667	43.306728756468	28
6	687	44.844710348084	29
6	713	45.924859961745	30
6	736	47.692665722959	31
6	753	49.152911258665	32
6	782	51.093913422977	33
6	803	52.429530492903	34
6	828	54.254419847358	35
6	851	55.703373394943	36
6	870	56.819810845408	37
6	897	58.518330532267	38
6	920	60.383677085388	39
6	936	62.034540803004	40
6	966	63.707455317928	41
6	989	65.141399923994	42
6	1008	66.562154139202	43
6	1035	67.977259677826	44
6	1058	69.363539228348	45
6	1077	70.670542534146	46
6	1104	72.490570485752	47
6	1127	73.486562137532	48
6	1146	75.276850601675	49
6	1173	76.426396621539	50
6	1196	78.012652317976	51
6	1219	79.562865648926	52
6	1240	81.48919634098	53
6	1262	83.408209968743	54
6	1288	85.033836344495	55
6	1311	86.492248172542	56
6	1331	88.19169121465	57
6	1353	89.299958472024	58
6	1380	91.191512008509	59
6	1403	92.410964813833	60
6	1426	93.951279319351	61
6	1449	95.440858470976	62
6	1470	96.563751890566	63
6	1495	98.452073233373	64
6	1518	99.643613382375	65
6	1538	101.086364419585	66
6	1564	102.494748514515	67
6	1587	103.850891394453	68
6	1610	105.83772501566	69
6	1633	107.149321687241	70
6	1656	108.567664634895	71
6	1679	110.505895486225	72
6	1702	112.477831736308	73
6	1725	113.82658013492	74
6	1745	114.941935669236	75
6	1771	116.301774258159	76
6	1794	118.007570828316	77
6	1817	119.481028463481	78
6	1840	120.942115764167	79
6	1863	122.825576599513	80
6	1886	124.439109544664	81
6	1906	125.965188211288	82
6	1932	127.866318576388	83
6	1955	128.971971897227	84
6	1978	130.760003265247	85
6	1997	132.26958917396	86
6	2024	133.759713628313	87
6	2047	135.325106120239	88
6	2065	136.780564204312	89
6	2093	138.415424703863	90
6	2116	139.87331288671	91
6	2139	141.046463945526	92
6	2162	142.484059609847	93
6	2182	143.677026647182	94
6	2208	145.652162678338	95
6	2228	147.334901635246	96
6	2248	148.394210302269	97
6	2277	149.995154019492	98
6	2296	151.172609554793	99
6	2321	153.014245395584	100
6	2346	154.766211669034	101
6	2369	155.861996634594	102
6	2392	157.650046734216	103
6	2415	158.730028258139	104
6	2438	160.332461960841	105
6	2461	161.576666430484	106
6	2484	163.426064286796	107
6	2507	164.618999619891	108
6	2530	165.947177738677	109
6	2553	167.735972857245	110
6	2576	169.233756135768	111
6	2599	170.909730542264	112
6	2615	172.841714714428	113
6	2645	174.72214536177	114
6	2666	175.847921148495	115
6	2691	176.954275957603	116
6	2714	178.857947391818	117
6	2737	180.122889878181	118
6	2760	182.000938810117	119
6	2783	183.03452632198	120
6	2803	184.866121421639	121
6	2829	185.984247417078	122
6	2852	187.972299167169	123
6	2875	189.135299813682	124
6	2898	190.946029675263	125
6	2921	192.147017442654	126
6	2944	194.096539098136	127
6	2967	195.255268695218	128
6	2990	196.332091866842	129
6	3013	197.493332685313	130
6	3033	199.033559869318	131
6	3059	200.60171041634	132
6	3078	202.474777060819	133
6	3101	204.373172007858	134
6	3128	206.177784402219	135
6	3151	207.90942495499	136
6	3174	209.21361974307	137
6	3197	210.286143604978	138
6	3220	211.29283727263	139
6	3240	213.257172673666	140
6	3264	214.992889289332	141
6	3289	216.696930823491	142
6	3312	218.213485198281	143
6	3335	220.117784212904	144
6	3358	221.460266691903	145
6	3381	222.648083585737	146
6	3404	224.329705083203	147
6	3425	225.870922689637	148
6	3447	226.937952931213	149
6	3473	228.956298098462	150
6	3496	230.490780578749	151
6	3519	231.72987478151	152
6	3542	233.392668667822	153
6	3561	235.008949068943	154
6	3585	236.008737195474	155
6	3611	237.45149218149	156
6	3630	239.322630188562	157

