version 2
run General-1-20231008-07:04:34-16872
attr configname General
attr datetime 20231008-07:04:34
attr experiment General
attr inifile omnetpp.ini
attr iterationvars ""
attr iterationvarsf ""
attr measurement ""
attr network Network2
attr processid 16872
attr repetition 1
attr replication #1
attr resultdir results
attr runnumber 1
attr seedset 1
param Network2.node[*].transmissionTime "uniform(1s, 2s)"
param Network2.node[*].delayTime "uniform(0.01s, 0.2s)"
param Network2.node[*].processingTime exponential(0.01s)
param Network2.node[*].lossProbability 0.75

vector 0 Network2.node[0] txVector ETV
vector 1 Network2.node[1] txVector ETV
vector 2 Network2.node[6] txVector ETV
vector 3 Network2.node[2] txVector ETV
vector 4 Network2.node[4] txVector ETV
vector 5 Network2.node[3] txVector ETV
0	1	0.089234179703	0
0	3	2.086418987836	1
0	5	4.018976349036	2
0	7	5.147100796808	3
0	9	7.146141312203	4
0	11	8.382230288467	5
0	13	9.778811014608	6
0	15	11.166721754825	7
0	17	12.836467795192	8
0	19	14.772006867804	9
0	21	16.618317786023	10
0	23	17.931591299014	11
0	25	19.45613946172	12
0	35	20.899592355476	13
0	37	22.330290925573	14
0	39	24.269418720506	15
0	58	26.047807955999	16
0	60	27.925950460253	17
0	62	29.024297296652	18
0	64	30.445404917351	19
0	66	32.403294449323	20
0	68	33.936459738645	21
0	70	35.628336851369	22
0	72	36.943852485274	23
0	82	38.630353409913	24
0	84	40.378519063	25
0	86	41.658963055233	26
0	88	43.448242387385	27
0	90	44.55146839947	28
0	92	45.999361924012	29
0	94	47.907957428484	30
0	101	49.201571571757	31
0	103	50.285194577067	32
0	105	52.202055911417	33
0	107	54.112504291232	34
0	109	55.411434402108	35
0	111	56.995823525941	36
0	113	58.561735554483	37
0	115	60.175673872816	38
0	117	62.132209531615	39
0	119	63.393188513002	40
0	121	64.624203934452	41
0	123	66.157652427327	42
0	125	68.107590560919	43
0	127	69.600650154405	44
0	129	71.141250662856	45
0	131	72.906735770056	46
0	133	73.952081495082	47
0	135	75.092047615327	48
0	151	76.884451194551	49
0	170	78.536750072731	50
0	186	80.432636288112	51
0	200	82.011025895482	52
0	202	83.3376707976	53
0	204	84.864728903516	54
0	206	86.750670998708	55
0	208	88.107940759162	56
0	218	90.016475904618	57
0	220	92.013798756177	58
0	222	93.186139266823	59
0	224	94.323275016739	60
0	226	96.255870481606	61
0	228	97.952688644293	62
0	230	99.01868881786	63
0	232	100.774151869703	64
0	234	102.528028062897	65
0	236	104.451052603664	66
0	238	106.162577360522	67
0	240	107.28684832284	68
0	242	108.306728454891	69
0	244	109.332939442133	70
0	246	110.361245931245	71
0	248	111.607457001114	72
0	250	113.467484951604	73
0	252	115.006316017711	74
0	259	116.55913799105	75
0	261	117.65069443139	76
0	271	119.220761089239	77
0	282	120.938152691235	78
0	284	122.07460791839	79
0	286	123.134525613279	80
0	297	124.255869064365	81
0	299	125.910192835961	82
0	301	127.039962448763	83
0	308	128.334321920645	84
0	310	129.586647667341	85
0	312	131.330473524636	86
0	332	132.525903004805	87
0	334	133.595925149626	88
0	341	135.082270256129	89
0	348	136.614096702428	90
0	350	138.16504492087	91
0	357	139.910379351468	92
0	359	141.674620963984	93
0	361	142.887354658802	94
0	363	143.961613092923	95
0	370	145.057032337298	96
0	372	146.861786902768	97
0	383	148.055221183577	98
0	385	149.783232823831	99
0	396	151.305969448646	100
0	412	152.922747803272	101
0	414	154.527058292764	102
0	416	156.076606212069	103
0	426	158.002787639039	104
0	428	159.129117159523	105
0	430	160.264196314966	106
0	432	161.769858484739	107
0	434	162.791383292876	108
0	441	164.739353503683	109
0	443	165.844744753908	110
0	445	167.347820663709	111
0	465	169.233510524617	112
0	467	170.810578157544	113
0	469	171.937104315847	114
0	471	173.887147622999	115
0	473	175.200758453343	116
0	475	177.153589577764	117
0	477	178.371982812766	118
0	488	179.620683012648	119
0	490	181.408612246743	120
0	492	183.02064342762	121
0	494	184.074552702137	122
0	496	185.494746382699	123
0	498	187.173815220014	124
0	500	189.092416998117	125
0	510	190.092819021201	126
0	512	191.92166483088	127
0	514	193.496376338765	128
0	516	195.124452541001	129
0	518	196.410028818181	130
0	520	197.996862155736	131
0	522	199.746883919813	132
0	524	201.605197757833	133
0	536	203.360279940652	134
0	538	204.742382691359	135
0	540	206.153194044368	136
0	542	207.55467362993	137
0	544	208.872057580972	138
0	546	210.493976949599	139
0	548	211.924224226388	140
0	550	213.898026307697	141
0	552	215.575827196125	142
0	554	216.774397084374	143
0	556	218.201098096209	144
0	558	219.544444335742	145
0	560	221.342083142722	146
0	567	223.222081429675	147
0	569	224.238544194145	148
0	581	225.537344418118	149
0	591	226.981152401423	150
0	593	228.754002832226	151
0	595	230.459684975097	152
0	609	231.697895890219	153
0	611	233.220182458289	154
0	613	235.124061721029	155
0	615	236.59921445849	156
0	617	238.446236741148	157
1	27	19.468747620219	0
1	27	19.468747620219	1
1	27	19.468747620219	2
1	27	19.468747620219	3
1	41	24.292005492618	4
1	41	24.292005492618	5
1	41	24.292005492618	6
1	41	24.292005492618	7
1	74	36.971847922564	8
1	74	36.971847922564	9
1	74	36.971847922564	10
1	74	36.971847922564	11
1	96	47.921351047363	12
1	96	47.921351047363	13
1	96	47.921351047363	14
1	96	47.921351047363	15
1	137	75.102350159777	16
1	137	75.102350159777	17
1	137	75.102350159777	18
1	137	75.102350159777	19
1	153	76.898933788505	20
1	153	76.898933788505	21
1	153	76.898933788505	22
1	153	76.898933788505	23
1	172	78.55233782997	24
1	172	78.55233782997	25
1	172	78.55233782997	26
1	172	78.55233782997	27
1	188	80.4478810857	28
1	188	80.4478810857	29
1	188	80.4478810857	30
1	188	80.4478810857	31
1	210	88.127705416817	32
1	210	88.127705416817	33
1	210	88.127705416817	34
1	210	88.127705416817	35
1	254	115.034769575635	36
1	254	115.034769575635	37
1	254	115.034769575635	38
1	254	115.034769575635	39
1	263	117.666106017553	40
1	263	117.666106017553	41
1	263	117.666106017553	42
1	263	117.666106017553	43
1	273	119.240253053853	44
1	273	119.240253053853	45
1	273	119.240253053853	46
1	273	119.240253053853	47
1	288	123.144981361354	48
1	288	123.144981361354	49
1	288	123.144981361354	50
1	288	123.144981361354	51
1	303	127.054438058444	52
1	303	127.054438058444	53
1	303	127.054438058444	54
1	303	127.054438058444	55
1	314	131.349180938237	56
1	314	131.349180938237	57
1	314	131.349180938237	58
1	314	131.349180938237	59
1	336	133.615247558736	60
1	336	133.615247558736	61
1	336	133.615247558736	62
1	336	133.615247558736	63
1	343	135.093428137115	64
1	343	135.093428137115	65
1	343	135.093428137115	66
1	343	135.093428137115	67
1	352	138.186108328433	68
1	352	138.186108328433	69
1	352	138.186108328433	70
1	352	138.186108328433	71
1	365	143.97338291741	72
1	365	143.97338291741	73
1	365	143.97338291741	74
1	365	143.97338291741	75
1	374	146.881988450937	76
1	374	146.881988450937	77
1	374	146.881988450937	78
1	374	146.881988450937	79
1	387	149.806581670134	80
1	387	149.806581670134	81
1	387	149.806581670134	82
1	387	149.806581670134	83
1	398	151.34573194586	84
1	398	151.34573194586	85
1	398	151.34573194586	86
1	398	151.34573194586	87
1	418	156.111706418169	88
1	418	156.111706418169	89
1	418	156.111706418169	90
1	418	156.111706418169	91
1	436	162.818934606466	92
1	436	162.818934606466	93
1	436	162.818934606466	94
1	436	162.818934606466	95
1	447	167.365464460793	96
1	447	167.365464460793	97
1	447	167.365464460793	98
1	447	167.365464460793	99
1	479	178.40191925374	100
1	479	178.40191925374	101
1	479	178.40191925374	102
1	479	178.40191925374	103
1	502	189.140035433208	104
1	502	189.140035433208	105
1	502	189.140035433208	106
1	502	189.140035433208	107
1	526	201.62717293629	108
1	526	201.62717293629	109
1	526	201.62717293629	110
1	526	201.62717293629	111
1	562	221.375500763666	112
1	562	221.375500763666	113
1	562	221.375500763666	114
1	562	221.375500763666	115
1	571	224.256325136437	116
1	571	224.256325136437	117
1	571	224.256325136437	118
1	571	224.256325136437	119
1	583	225.547539496091	120
1	583	225.547539496091	121
1	583	225.547539496091	122
1	583	225.547539496091	123
1	597	230.47013932149	124
1	597	230.47013932149	125
1	597	230.47013932149	126
1	597	230.47013932149	127
2	32	19.484148530717	0
2	32	19.484148530717	1
2	52	24.335792183613	2
2	52	24.335792183613	3
2	79	36.99163038138	4
2	79	36.99163038138	5
2	167	76.955177429636	6
2	167	76.955177429636	7
2	193	80.466406724104	8
2	193	80.466406724104	9
2	215	88.155525048286	10
2	215	88.155525048286	11
2	268	117.692232080472	12
2	268	117.692232080472	13
2	423	156.122061112083	14
2	423	156.122061112083	15
2	507	189.150893789256	16
2	507	189.150893789256	17
2	588	225.56173547478	18
2	588	225.56173547478	19
2	602	230.480898668933	20
2	602	230.480898668933	21
3	46	24.305765878842	0
3	46	24.305765878842	1
3	46	24.305765878842	2
3	46	24.305765878842	3
3	142	75.135722123178	4
3	142	75.135722123178	5
3	142	75.135722123178	6
3	142	75.135722123178	7
3	162	76.940808814691	8
3	162	76.940808814691	9
3	162	76.940808814691	10
3	162	76.940808814691	11
3	177	78.562455208107	12
3	177	78.562455208107	13
3	177	78.562455208107	14
3	177	78.562455208107	15
3	319	131.359694061546	16
3	319	131.359694061546	17
3	319	131.359694061546	18
3	319	131.359694061546	19
3	403	151.381661334235	20
3	403	151.381661334235	21
3	403	151.381661334235	22
3	403	151.381661334235	23
3	457	167.392607055095	24
3	457	167.392607055095	25
3	457	167.392607055095	26
3	457	167.392607055095	27
3	531	201.63721967849	28
3	531	201.63721967849	29
3	531	201.63721967849	30
3	531	201.63721967849	31
3	576	224.282528157788	32
3	576	224.282528157788	33
3	576	224.282528157788	34
3	576	224.282528157788	35
4	51	24.333435391028	0
4	51	24.333435391028	1
4	51	24.333435391028	2
4	147	75.162193068781	3
4	147	75.162193068781	4
4	147	75.162193068781	5
4	328	131.384393903575	6
4	328	131.384393903575	7
4	328	131.384393903575	8
4	456	167.390084812941	9
4	456	167.390084812941	10
4	456	167.390084812941	11
5	158	76.919090383032	0
5	158	76.919090383032	1
5	158	76.919090383032	2
5	182	78.602310901	3
5	182	78.602310901	4
5	182	78.602310901	5
5	196	80.481250730851	6
5	196	80.481250730851	7
5	196	80.481250730851	8
5	278	119.264191198288	9
5	278	119.264191198288	10
5	278	119.264191198288	11
5	293	123.157539440799	12
5	293	123.157539440799	13
5	293	123.157539440799	14
5	324	131.372688494619	15
5	324	131.372688494619	16
5	324	131.372688494619	17
5	379	146.917865551028	18
5	379	146.917865551028	19
5	379	146.917865551028	20
5	392	149.828199053775	21
5	392	149.828199053775	22
5	392	149.828199053775	23
5	408	151.396604423979	24
5	408	151.396604423979	25
5	408	151.396604423979	26
5	452	167.379843073517	27
5	452	167.379843073517	28
5	452	167.379843073517	29
5	484	178.428798658244	30
5	484	178.428798658244	31
5	484	178.428798658244	32
5	605	230.500170768426	33
5	605	230.500170768426	34
5	605	230.500170768426	35

