version 2
run General-4-20231008-07:04:34-16872
attr configname General
attr datetime 20231008-07:04:34
attr experiment General
attr inifile omnetpp.ini
attr iterationvars ""
attr iterationvarsf ""
attr measurement ""
attr network Network2
attr processid 16872
attr repetition 4
attr replication #4
attr resultdir results
attr runnumber 4
attr seedset 4
param Network2.node[*].transmissionTime "uniform(1s, 2s)"
param Network2.node[*].delayTime "uniform(0.01s, 0.2s)"
param Network2.node[*].processingTime exponential(0.01s)
param Network2.node[*].lossProbability 0.75

vector 0 Network2.node[0] txVector ETV
vector 1 Network2.node[1] txVector ETV
vector 2 Network2.node[2] txVector ETV
vector 3 Network2.node[4] txVector ETV
vector 4 Network2.node[5] rxVector ETV
vector 5 Network2.node[6] txVector ETV
vector 6 Network2.node[3] txVector ETV
0	1	0.193735669288	0
0	3	2.094357123985	1
0	10	3.267052448974	2
0	12	4.483141949554	3
0	14	6.459416404287	4
0	16	7.465646661273	5
0	32	8.718629022282	6
0	34	9.727615116783	7
0	36	11.114186398838	8
0	38	12.158346452438	9
0	57	14.114999418999	10
0	59	15.958527537682	11
0	61	17.883680696753	12
0	68	19.753987172074	13
0	70	20.91221057965	14
0	72	22.457413233505	15
0	74	23.981817317582	16
0	76	25.619427566338	17
0	78	27.020923008831	18
0	80	28.670728122039	19
0	82	30.067628125582	20
0	84	31.691544241659	21
0	86	33.458949209345	22
0	88	34.637923117415	23
0	90	36.013498885478	24
0	92	37.516031946675	25
0	94	39.202699028342	26
0	96	40.456378681273	27
0	98	42.011119545824	28
0	100	43.636050395821	29
0	111	45.531551557514	30
0	127	47.217139760885	31
0	134	49.063862032644	32
0	136	50.148523644931	33
0	138	51.745790251918	34
0	140	52.991243962353	35
0	142	54.723837414445	36
0	149	56.618488707734	37
0	151	58.562439380834	38
0	153	59.725311102733	39
0	155	61.317184748515	40
0	157	63.267539408445	41
0	164	64.634309077324	42
0	183	66.318332292527	43
0	185	67.799792235872	44
0	195	69.727200846343	45
0	197	71.612997939267	46
0	199	73.158374853355	47
0	201	74.529481036279	48
0	203	75.666406854445	49
0	205	76.778917190077	50
0	215	77.851200445712	51
0	217	79.353848518495	52
0	224	81.101343332015	53
0	226	82.713165151112	54
0	228	83.837179772247	55
0	251	85.596709301619	56
0	253	87.259011736762	57
0	255	88.842555268359	58
0	257	90.569418292184	59
0	259	92.473794914008	60
0	261	93.490512575413	61
0	263	95.387204430456	62
0	265	96.891105413594	63
0	267	98.505924862501	64
0	274	99.640670508536	65
0	281	100.739998269285	66
0	296	102.149633758393	67
0	298	103.912515548681	68
0	309	105.903312365682	69
0	325	107.13029338505	70
0	327	108.394553894334	71
0	341	109.816919840564	72
0	351	111.268540532951	73
0	353	112.581907159107	74
0	355	114.572024079196	75
0	357	116.456066466093	76
0	359	117.476008825859	77
0	361	118.578804066328	78
0	363	119.672884708892	79
0	365	120.938682035	80
0	367	122.133629722676	81
0	374	123.527766055816	82
0	376	125.139578408484	83
0	378	127.072957577106	84
0	380	128.807476632452	85
0	392	130.632297556769	86
0	407	131.965753936596	87
0	409	133.428603694696	88
0	411	134.853395950902	89
0	413	136.609045240018	90
0	415	137.860543706143	91
0	417	139.723890828589	92
0	419	141.311525234874	93
0	421	143.019670108953	94
0	423	144.045071810405	95
0	434	145.181426999546	96
0	436	146.781224489133	97
0	438	148.742977807452	98
0	440	150.668162936731	99
0	456	152.179069059589	100
0	458	153.358918695399	101
0	460	154.795942169303	102
0	471	156.662066355036	103
0	473	157.724633260784	104
0	475	158.920657654214	105
0	477	160.374486892871	106
0	489	161.724217990567	107
0	491	163.470045554605	108
0	498	165.421714146775	109
0	500	167.296776493699	110
0	502	168.88105214356	111
0	504	169.898585811411	112
0	506	171.787288394212	113
0	508	173.171436057813	114
0	510	174.339166268395	115
0	517	175.676346099857	116
0	519	176.810218210952	117
0	521	178.699228703664	118
0	523	180.105984529867	119
0	525	181.97107898599	120
0	527	183.701294317297	121
0	529	185.297797594141	122
0	531	187.112963983711	123
0	538	188.778220757298	124
0	545	190.445675286386	125
0	547	192.379217915391	126
0	549	193.5971340513	127
0	551	194.862049774421	128
0	553	196.743451369615	129
0	564	198.701211121786	130
0	566	200.340074230373	131
0	585	201.768229210904	132
0	587	203.14750792544	133
0	589	204.260864830731	134
0	591	205.310189606078	135
0	593	206.505300766477	136
0	595	208.355365901874	137
0	597	209.847681829394	138
0	599	211.828119366816	139
0	601	213.487154893963	140
0	603	214.759599410383	141
0	605	216.405047757704	142
0	612	217.647193404067	143
0	614	219.0474651029	144
0	616	220.618699306775	145
0	618	221.738181223314	146
0	620	223.534365604086	147
0	622	224.858117561707	148
0	624	225.973746215611	149
0	631	227.680946059444	150
0	638	229.591702354991	151
0	645	230.841844261776	152
0	652	231.964294209064	153
0	654	233.812520540006	154
0	656	235.760114106269	155
0	658	237.251184853877	156
0	668	239.159694334644	157
1	5	2.123710255091	0
1	5	2.123710255091	1
1	5	2.123710255091	2
1	5	2.123710255091	3
1	18	7.481352267689	4
1	18	7.481352267689	5
1	18	7.481352267689	6
1	18	7.481352267689	7
1	40	12.174076063203	8
1	40	12.174076063203	9
1	40	12.174076063203	10
1	40	12.174076063203	11
1	63	17.911714364943	12
1	63	17.911714364943	13
1	63	17.911714364943	14
1	63	17.911714364943	15
1	102	43.650557953866	16
1	102	43.650557953866	17
1	102	43.650557953866	18
1	102	43.650557953866	19
1	113	45.570940168253	20
1	113	45.570940168253	21
1	113	45.570940168253	22
1	113	45.570940168253	23
1	129	47.240361363037	24
1	129	47.240361363037	25
1	129	47.240361363037	26
1	129	47.240361363037	27
1	144	54.74106799476	28
1	144	54.74106799476	29
1	144	54.74106799476	30
1	144	54.74106799476	31
1	159	63.277757966477	32
1	159	63.277757966477	33
1	159	63.277757966477	34
1	159	63.277757966477	35
1	166	64.651538003439	36
1	166	64.651538003439	37
1	166	64.651538003439	38
1	166	64.651538003439	39
1	187	67.811745185133	40
1	187	67.811745185133	41
1	187	67.811745185133	42
1	187	67.811745185133	43
1	207	76.791064469175	44
1	207	76.791064469175	45
1	207	76.791064469175	46
1	207	76.791064469175	47
1	219	79.370546167243	48
1	219	79.370546167243	49
1	219	79.370546167243	50
1	219	79.370546167243	51
1	230	83.862999133796	52
1	230	83.862999133796	53
1	230	83.862999133796	54
1	230	83.862999133796	55
1	269	98.522310847603	56
1	269	98.522310847603	57
1	269	98.522310847603	58
1	269	98.522310847603	59
1	276	99.660658872478	60
1	276	99.660658872478	61
1	276	99.660658872478	62
1	276	99.660658872478	63
1	283	100.766649737415	64
1	283	100.766649737415	65
1	283	100.766649737415	66
1	283	100.766649737415	67
1	300	103.923280605789	68
1	300	103.923280605789	69
1	300	103.923280605789	70
1	300	103.923280605789	71
1	311	105.928183313095	72
1	311	105.928183313095	73
1	311	105.928183313095	74
1	311	105.928183313095	75
1	329	108.425515939222	76
1	329	108.425515939222	77
1	329	108.425515939222	78
1	329	108.425515939222	79
1	343	109.83354416081	80
1	343	109.83354416081	81
1	343	109.83354416081	82
1	343	109.83354416081	83
1	369	122.159210163052	84
1	369	122.159210163052	85
1	369	122.159210163052	86
1	369	122.159210163052	87
1	382	128.821569096053	88
1	382	128.821569096053	89
1	382	128.821569096053	90
1	382	128.821569096053	91
1	394	130.6640249066	92
1	394	130.6640249066	93
1	394	130.6640249066	94
1	394	130.6640249066	95
1	425	144.062977334254	96
1	425	144.062977334254	97
1	425	144.062977334254	98
1	425	144.062977334254	99
1	442	150.69241271239	100
1	442	150.69241271239	101
1	442	150.69241271239	102
1	442	150.69241271239	103
1	462	154.814551488014	104
1	462	154.814551488014	105
1	462	154.814551488014	106
1	462	154.814551488014	107
1	479	160.386514421336	108
1	479	160.386514421336	109
1	479	160.386514421336	110
1	479	160.386514421336	111
1	493	163.490915997145	112
1	493	163.490915997145	113
1	493	163.490915997145	114
1	493	163.490915997145	115
1	512	174.358183938901	116
1	512	174.358183938901	117
1	512	174.358183938901	118
1	512	174.358183938901	119
1	533	187.124559752517	120
1	533	187.124559752517	121
1	533	187.124559752517	122
1	533	187.124559752517	123
1	540	188.788928573006	124
1	540	188.788928573006	125
1	540	188.788928573006	126
1	540	188.788928573006	127
1	555	196.756209284495	128
1	555	196.756209284495	129
1	555	196.756209284495	130
1	555	196.756209284495	131
1	568	200.3571225232	132
1	568	200.3571225232	133
1	568	200.3571225232	134
1	568	200.3571225232	135
1	607	216.42534625532	136
1	607	216.42534625532	137
1	607	216.42534625532	138
1	607	216.42534625532	139
1	626	225.990980387552	140
1	626	225.990980387552	141
1	626	225.990980387552	142
1	626	225.990980387552	143
1	633	227.708053130408	144
1	633	227.708053130408	145
1	633	227.708053130408	146
1	633	227.708053130408	147
1	640	229.607416542116	148
1	640	229.607416542116	149
1	640	229.607416542116	150
1	640	229.607416542116	151
1	647	230.852903173201	152
1	647	230.852903173201	153
1	647	230.852903173201	154
1	647	230.852903173201	155
1	660	237.285114374422	156
1	660	237.285114374422	157
1	660	237.285114374422	158
1	660	237.285114374422	159
1	670	239.175066754914	160
1	670	239.175066754914	161
1	670	239.175066754914	162
1	670	239.175066754914	163
2	23	7.491403992731	0
2	23	7.491403992731	1
2	23	7.491403992731	2
2	23	7.491403992731	3
2	45	12.184481995515	4
2	45	12.184481995515	5
2	45	12.184481995515	6
2	45	12.184481995515	7
2	122	45.616243231619	8
2	122	45.616243231619	9
2	122	45.616243231619	10
2	122	45.616243231619	11
2	174	64.705939502209	12
2	174	64.705939502209	13
2	174	64.705939502209	14
2	174	64.705939502209	15
2	238	83.887080989237	16
2	238	83.887080989237	17
2	238	83.887080989237	18
2	238	83.887080989237	19
2	316	105.949837928532	20
2	316	105.949837928532	21
2	316	105.949837928532	22
2	316	105.949837928532	23
2	387	128.832445397728	24
2	387	128.832445397728	25
2	387	128.832445397728	26
2	387	128.832445397728	27
2	400	130.67922961338	28
2	400	130.67922961338	29
2	400	130.67922961338	30
2	400	130.67922961338	31
2	447	150.712644818111	32
2	447	150.712644818111	33
2	447	150.712644818111	34
2	447	150.712644818111	35
2	484	160.404893121667	36
2	484	160.404893121667	37
2	484	160.404893121667	38
2	484	160.404893121667	39
2	577	200.406561845011	40
2	577	200.406561845011	41
2	577	200.406561845011	42
2	577	200.406561845011	43
3	28	7.510670735707	0
3	28	7.510670735707	1
3	28	7.510670735707	2
3	243	83.897185803342	3
3	243	83.897185803342	4
3	243	83.897185803342	5
3	292	100.795373372091	6
3	292	100.795373372091	7
3	292	100.795373372091	8
3	321	105.964400295044	9
3	321	105.964400295044	10
3	321	105.964400295044	11
3	452	150.736005047268	12
3	452	150.736005047268	13
3	452	150.736005047268	14
4	31	7.520670735707	0
5	46	12.189988274372	0
5	46	12.189988274372	1
5	171	64.679324586062	2
5	171	64.679324586062	3
5	192	67.828143549285	4
5	192	67.828143549285	5
5	212	76.801932955265	6
5	212	76.801932955265	7
5	235	83.874908073285	8
5	235	83.874908073285	9
5	338	108.449348609283	10
5	338	108.449348609283	11
5	348	109.874735505572	12
5	348	109.874735505572	13
5	399	130.676648246509	14
5	399	130.676648246509	15
5	582	200.427864959425	16
5	582	200.427864959425	17
5	665	237.308801600175	18
5	665	237.308801600175	19
6	53	12.213080983219	0
6	53	12.213080983219	1
6	53	12.213080983219	2
6	107	43.662683037024	3
6	107	43.662683037024	4
6	107	43.662683037024	5
6	118	45.601836871091	6
6	118	45.601836871091	7
6	118	45.601836871091	8
6	179	64.743632081785	9
6	179	64.743632081785	10
6	179	64.743632081785	11
6	244	83.901787075117	12
6	244	83.901787075117	13
6	244	83.901787075117	14
6	288	100.783377089462	15
6	288	100.783377089462	16
6	288	100.783377089462	17
6	305	103.946753062999	18
6	305	103.946753062999	19
6	305	103.946753062999	20
6	334	108.43880810049	21
6	334	108.43880810049	22
6	334	108.43880810049	23
6	430	144.075016399153	24
6	430	144.075016399153	25
6	430	144.075016399153	26
6	467	154.825861568079	27
6	467	154.825861568079	28
6	467	154.825861568079	29
6	560	196.77970467104	30
6	560	196.77970467104	31
6	560	196.77970467104	32
6	573	200.395246891683	33
6	573	200.395246891683	34
6	573	200.395246891683	35

