version 2
run General-2-20231008-07:04:34-16872
attr configname General
attr datetime 20231008-07:04:34
attr experiment General
attr inifile omnetpp.ini
attr iterationvars ""
attr iterationvarsf ""
attr measurement ""
attr network Network2
attr processid 16872
attr repetition 2
attr replication #2
attr resultdir results
attr runnumber 2
attr seedset 2
param Network2.node[*].transmissionTime "uniform(1s, 2s)"
param Network2.node[*].delayTime "uniform(0.01s, 0.2s)"
param Network2.node[*].processingTime exponential(0.01s)
param Network2.node[*].lossProbability 0.75

vector 0 Network2.node[0] txVector ETV
vector 1 Network2.node[1] txVector ETV
vector 2 Network2.node[6] txVector ETV
vector 3 Network2.node[2] txVector ETV
vector 4 Network2.node[4] txVector ETV
vector 5 Network2.node[3] txVector ETV
0	1	0.092839031499	0
0	3	1.277921112972	1
0	5	3.20946197656	2
0	7	5.157192587406	3
0	9	6.641941683619	4
0	11	7.962478119899	5
0	13	9.116904795422	6
0	15	10.815767484736	7
0	17	11.935718028592	8
0	19	13.420893943422	9
0	21	15.053631674052	10
0	23	16.871858396121	11
0	25	18.554884391158	12
0	27	20.053445558782	13
0	29	21.640242537736	14
0	36	23.359996768666	15
0	38	25.206558259923	16
0	45	26.286203730872	17
0	47	27.40239705357	18
0	49	28.584124090869	19
0	51	30.078413858797	20
0	53	31.644178989131	21
0	55	32.866014156278	22
0	57	34.63350533277	23
0	59	36.210813402917	24
0	61	37.378636717351	25
0	63	38.746108086334	26
0	65	40.214781668756	27
0	67	41.869047850856	28
0	69	43.662137593861	29
0	71	45.325199389384	30
0	78	46.938229083103	31
0	88	48.63898142662	32
0	90	50.206125554183	33
0	113	51.633671518435	34
0	115	53.065209288403	35
0	131	54.953513034872	36
0	133	56.276387251933	37
0	135	58.038317250806	38
0	145	59.970945811617	39
0	147	61.544588309965	40
0	154	62.938521601279	41
0	156	63.951538939281	42
0	158	65.748943882781	43
0	160	67.018332683966	44
0	167	68.601017572936	45
0	169	70.368505831594	46
0	171	72.282981403424	47
0	173	74.109349409137	48
0	175	75.521095849825	49
0	185	77.151938505955	50
0	187	79.109784177756	51
0	189	80.913236306999	52
0	191	82.142622271106	53
0	193	84.021824301472	54
0	195	85.614320664685	55
0	197	87.400492910547	56
0	204	88.932637351351	57
0	206	90.801553981397	58
0	208	92.550331859635	59
0	210	94.348917514803	60
0	212	95.892262747763	61
0	214	97.113100664709	62
0	221	99.031559305517	63
0	237	100.926705044247	64
0	239	102.46315874231	65
0	241	103.784477325873	66
0	243	105.181731318142	67
0	245	106.459170533363	68
0	247	108.395418576682	69
0	249	109.859161184654	70
0	251	111.7114501449	71
0	253	112.924217515877	72
0	255	113.924341100054	73
0	257	115.017237365963	74
0	259	116.192353755022	75
0	261	117.707212922182	76
0	263	119.587203273336	77
0	265	121.371995196231	78
0	267	122.90181637208	79
0	269	124.175654241601	80
0	271	125.202038387787	81
0	278	127.071747008963	82
0	280	128.303865259067	83
0	282	129.947176686275	84
0	284	131.108643253121	85
0	291	132.978789146311	86
0	303	134.602061479372	87
0	305	136.53709720729	88
0	307	137.927682887317	89
0	309	139.838338404215	90
0	311	141.65780377972	91
0	313	142.748174157711	92
0	315	144.106414465485	93
0	317	145.125399593515	94
0	319	146.575426315674	95
0	326	147.605794567633	96
0	328	148.896221313411	97
0	335	150.511475883908	98
0	337	152.384603224014	99
0	339	153.8696569903	100
0	341	155.613519020396	101
0	343	157.367699972837	102
0	345	158.691383175337	103
0	347	160.4267345695	104
0	349	161.612324305595	105
0	351	162.744416063669	106
0	361	163.754387969634	107
0	363	165.434415223793	108
0	365	167.111554966791	109
0	377	168.997382367978	110
0	379	170.162249510426	111
0	389	171.989702860841	112
0	391	173.057438100006	113
0	403	174.685619318641	114
0	405	176.650399973399	115
0	407	178.430701844177	116
0	409	179.856676593904	117
0	411	181.202774743099	118
0	426	182.741957354607	119
0	428	184.088587375373	120
0	430	185.29708986987	121
0	432	187.164471411394	122
0	442	188.956801627778	123
0	465	190.162595305607	124
0	467	191.557809364531	125
0	469	193.156355746105	126
0	471	194.306842210717	127
0	478	195.481285034228	128
0	480	197.33640470171	129
0	482	198.717197282721	130
0	489	199.895507108669	131
0	491	201.235170379763	132
0	505	202.886262569826	133
0	507	204.611892648524	134
0	509	206.002866910555	135
0	511	207.389450371283	136
0	513	209.124135679816	137
0	515	211.097686996003	138
0	517	212.340024499008	139
0	519	213.546643250174	140
0	521	214.97105261499	141
0	523	216.688987432066	142
0	525	218.540659705894	143
0	527	219.891383246072	144
0	529	221.254677891983	145
0	531	222.590970862909	146
0	538	223.997149294727	147
0	545	225.47488564604	148
0	547	226.692792967447	149
0	549	228.527758821399	150
0	572	229.628434478791	151
0	574	230.701932863585	152
0	576	232.325317579807	153
0	578	233.678531475618	154
0	580	234.843310098417	155
0	582	236.736476283774	156
0	584	238.561366770437	157
1	31	21.653233313036	0
1	31	21.653233313036	1
1	31	21.653233313036	2
1	31	21.653233313036	3
1	40	25.223595207815	4
1	40	25.223595207815	5
1	40	25.223595207815	6
1	40	25.223595207815	7
1	73	45.382141586059	8
1	73	45.382141586059	9
1	73	45.382141586059	10
1	73	45.382141586059	11
1	80	46.981625708684	12
1	80	46.981625708684	13
1	80	46.981625708684	14
1	80	46.981625708684	15
1	92	50.221865822574	16
1	92	50.221865822574	17
1	92	50.221865822574	18
1	92	50.221865822574	19
1	117	53.103544283739	20
1	117	53.103544283739	21
1	117	53.103544283739	22
1	117	53.103544283739	23
1	137	58.060738056527	24
1	137	58.060738056527	25
1	137	58.060738056527	26
1	137	58.060738056527	27
1	149	61.580699371056	28
1	149	61.580699371056	29
1	149	61.580699371056	30
1	149	61.580699371056	31
1	162	67.028591514363	32
1	162	67.028591514363	33
1	162	67.028591514363	34
1	162	67.028591514363	35
1	177	75.535280010008	36
1	177	75.535280010008	37
1	177	75.535280010008	38
1	177	75.535280010008	39
1	199	87.445004322928	40
1	199	87.445004322928	41
1	199	87.445004322928	42
1	199	87.445004322928	43
1	216	97.132067618834	44
1	216	97.132067618834	45
1	216	97.132067618834	46
1	216	97.132067618834	47
1	223	99.068029783302	48
1	223	99.068029783302	49
1	223	99.068029783302	50
1	223	99.068029783302	51
1	273	125.215260265363	52
1	273	125.215260265363	53
1	273	125.215260265363	54
1	273	125.215260265363	55
1	286	131.121094619768	56
1	286	131.121094619768	57
1	286	131.121094619768	58
1	286	131.121094619768	59
1	293	132.992161641221	60
1	293	132.992161641221	61
1	293	132.992161641221	62
1	293	132.992161641221	63
1	321	146.588578273195	64
1	321	146.588578273195	65
1	321	146.588578273195	66
1	321	146.588578273195	67
1	330	148.936938803298	68
1	330	148.936938803298	69
1	330	148.936938803298	70
1	330	148.936938803298	71
1	353	162.759084805858	72
1	353	162.759084805858	73
1	353	162.759084805858	74
1	353	162.759084805858	75
1	367	167.123222193434	76
1	367	167.123222193434	77
1	367	167.123222193434	78
1	367	167.123222193434	79
1	381	170.180008231122	80
1	381	170.180008231122	81
1	381	170.180008231122	82
1	381	170.180008231122	83
1	393	173.0775151317	84
1	393	173.0775151317	85
1	393	173.0775151317	86
1	393	173.0775151317	87
1	413	181.21841725155	88
1	413	181.21841725155	89
1	413	181.21841725155	90
1	413	181.21841725155	91
1	434	187.178763892979	92
1	434	187.178763892979	93
1	434	187.178763892979	94
1	434	187.178763892979	95
1	444	188.97992018535	96
1	444	188.97992018535	97
1	444	188.97992018535	98
1	444	188.97992018535	99
1	473	194.31845183949	100
1	473	194.31845183949	101
1	473	194.31845183949	102
1	473	194.31845183949	103
1	484	198.742414274559	104
1	484	198.742414274559	105
1	484	198.742414274559	106
1	484	198.742414274559	107
1	493	201.255417956043	108
1	493	201.255417956043	109
1	493	201.255417956043	110
1	493	201.255417956043	111
1	533	222.601592889853	112
1	533	222.601592889853	113
1	533	222.601592889853	114
1	533	222.601592889853	115
1	540	224.008068118473	116
1	540	224.008068118473	117
1	540	224.008068118473	118
1	540	224.008068118473	119
1	551	228.542307660694	120
1	551	228.542307660694	121
1	551	228.542307660694	122
1	551	228.542307660694	123
2	85	47.041632001772	0
2	85	47.041632001772	1
2	104	50.256031170774	2
2	104	50.256031170774	3
2	142	58.074646895604	4
2	142	58.074646895604	5
2	182	75.545706973622	6
2	182	75.545706973622	7
2	358	162.800491830849	8
2	358	162.800491830849	9
2	386	170.193338634903	10
2	386	170.193338634903	11
2	418	181.240213919896	12
2	418	181.240213919896	13
2	439	187.189535520323	14
2	439	187.189535520323	15
2	455	189.019757356474	16
2	455	189.019757356474	17
2	498	201.271470753354	18
2	498	201.271470753354	19
2	556	228.556862934923	20
2	556	228.556862934923	21
3	97	50.238173980224	0
3	97	50.238173980224	1
3	97	50.238173980224	2
3	97	50.238173980224	3
3	126	53.142211245539	4
3	126	53.142211245539	5
3	126	53.142211245539	6
3	126	53.142211245539	7
3	228	99.085799235325	8
3	228	99.085799235325	9
3	228	99.085799235325	10
3	228	99.085799235325	11
3	298	133.004769758287	12
3	298	133.004769758287	13
3	298	133.004769758287	14
3	298	133.004769758287	15
3	372	167.152106076873	16
3	372	167.152106076873	17
3	372	167.152106076873	18
3	372	167.152106076873	19
3	398	173.11236995376	20
3	398	173.11236995376	21
3	398	173.11236995376	22
3	398	173.11236995376	23
3	419	181.246889954986	24
3	419	181.246889954986	25
3	419	181.246889954986	26
3	419	181.246889954986	27
3	449	189.004046580366	28
3	449	189.004046580366	29
3	449	189.004046580366	30
3	449	189.004046580366	31
3	563	228.578709623065	32
3	563	228.578709623065	33
3	563	228.578709623065	34
3	563	228.578709623065	35
4	102	50.249030593157	0
4	102	50.249030593157	1
4	102	50.249030593157	2
4	454	189.016542498025	3
4	454	189.016542498025	4
4	454	189.016542498025	5
4	568	228.591993374341	6
4	568	228.591993374341	7
4	568	228.591993374341	8
5	103	50.252736445493	0
5	103	50.252736445493	1
5	103	50.252736445493	2
5	122	53.125652312398	3
5	122	53.125652312398	4
5	122	53.125652312398	5
5	229	99.087406003773	6
5	229	99.087406003773	7
5	229	99.087406003773	8
5	461	189.035301189008	9
5	461	189.035301189008	10
5	461	189.035301189008	11
5	499	201.279291035316	12
5	499	201.279291035316	13
5	499	201.279291035316	14
5	557	228.558669565256	15
5	557	228.558669565256	16
5	557	228.558669565256	17

