version 2
run General-3-20231008-07:04:34-16872
attr configname General
attr datetime 20231008-07:04:34
attr experiment General
attr inifile omnetpp.ini
attr iterationvars ""
attr iterationvarsf ""
attr measurement ""
attr network Network2
attr processid 16872
attr repetition 3
attr replication #3
attr resultdir results
attr runnumber 3
attr seedset 3
param Network2.node[*].transmissionTime "uniform(1s, 2s)"
param Network2.node[*].delayTime "uniform(0.01s, 0.2s)"
param Network2.node[*].processingTime exponential(0.01s)
param Network2.node[*].lossProbability 0.75

vector 0 Network2.node[0] txVector ETV
vector 1 Network2.node[1] txVector ETV
vector 2 Network2.node[3] txVector ETV
vector 3 Network2.node[6] txVector ETV
vector 4 Network2.node[2] txVector ETV
vector 5 Network2.node[4] txVector ETV
0	1	0.114651601831	0
0	3	1.185376482154	1
0	5	3.025325524457	2
0	7	4.146654103719	3
0	14	5.71596542939	4
0	16	6.92320830801	5
0	18	7.974675515969	6
0	20	9.415485354443	7
0	22	10.445361567032	8
0	24	11.90219478968	9
0	26	13.551338841277	10
0	28	14.829826125246	11
0	30	16.506081028678	12
0	41	18.096943839755	13
0	43	19.403304466814	14
0	45	20.989924438833	15
0	47	22.264844546397	16
0	49	23.719452311354	17
0	64	25.477117556915	18
0	71	27.379951659426	19
0	73	28.793670343071	20
0	75	30.580808843555	21
0	77	32.294374591274	22
0	79	33.317492159851	23
0	81	34.633259408245	24
0	83	36.196029504597	25
0	85	37.944186941324	26
0	87	39.553810605383	27
0	89	40.757165134255	28
0	105	42.410795986721	29
0	107	44.251837146537	30
0	109	45.94447089366	31
0	111	47.390371334342	32
0	113	48.752711793011	33
0	115	50.268806412419	34
0	117	51.726138587644	35
0	119	53.534500820631	36
0	121	54.850785354221	37
0	123	56.694572449498	38
0	125	58.183863705093	39
0	127	59.723983306507	40
0	129	61.550111381173	41
0	131	63.071715717971	42
0	133	64.21431506432	43
0	135	65.516578677877	44
0	142	67.323601352818	45
0	144	68.974078214563	46
0	146	70.698017351165	47
0	157	72.173105957754	48
0	159	74.163407146301	49
0	161	75.856057762703	50
0	163	77.608197792735	51
0	165	78.72441438313	52
0	172	79.810415098512	53
0	174	81.517595701221	54
0	176	82.78148237157	55
0	199	84.708208056235	56
0	201	86.536230173263	57
0	203	87.769922182498	58
0	215	88.972799830673	59
0	225	90.145162730081	60
0	227	91.717400349978	61
0	229	93.059819936821	62
0	239	94.669465651572	63
0	241	95.926672029611	64
0	243	97.20331357636	65
0	245	98.455055086943	66
0	247	100.352792116184	67
0	249	102.188038426753	68
0	251	103.334354649134	69
0	258	105.329797823982	70
0	260	106.38752931177	71
0	274	107.470400326488	72
0	276	109.365970655878	73
0	278	110.706659139668	74
0	280	111.771332332933	75
0	282	113.635452002588	76
0	289	114.926324448151	77
0	301	116.234008176321	78
0	303	117.883581434911	79
0	326	119.193543069599	80
0	328	120.676040108152	81
0	330	121.963089872919	82
0	332	123.796777757186	83
0	334	125.668957271449	84
0	350	126.76108886192	85
0	360	127.856655677151	86
0	362	129.821949029177	87
0	374	131.57297633665	88
0	376	132.628617882564	89
0	378	134.371355155318	90
0	388	135.676041583366	91
0	390	137.505042660584	92
0	400	138.579080455772	93
0	402	139.647630378207	94
0	404	140.724126658937	95
0	406	142.262919321027	96
0	408	143.338485724595	97
0	415	144.522258040565	98
0	417	146.501335295453	99
0	419	147.794689809275	100
0	421	149.249001590139	101
0	423	150.647138501354	102
0	425	152.435727637563	103
0	432	154.053181819687	104
0	434	155.296160003007	105
0	436	156.775667314254	106
0	438	157.776412834483	107
0	445	158.806724192179	108
0	452	160.081076358049	109
0	454	161.47203437502	110
0	456	162.518330580624	111
0	458	163.957752108177	112
0	460	165.329732417896	113
0	470	166.926735658966	114
0	472	168.337055865977	115
0	474	170.273028045263	116
0	476	171.548580506652	117
0	478	172.693870465107	118
0	485	174.395890590571	119
0	487	175.722154595958	120
0	489	177.306084688589	121
0	491	178.406662401347	122
0	493	179.908585744747	123
0	495	181.709581978689	124
0	497	182.779951738031	125
0	504	184.618855145597	126
0	527	186.354548533051	127
0	534	187.989321752055	128
0	536	189.860811297385	129
0	538	191.788340573734	130
0	558	193.008676904789	131
0	573	194.426238812809	132
0	580	196.401182406186	133
0	599	197.51611463849	134
0	611	199.144956790214	135
0	613	200.466421492934	136
0	620	201.882020703587	137
0	622	203.57298440726	138
0	624	204.662479402567	139
0	631	206.09440471984	140
0	633	207.722430205043	141
0	635	209.131020049169	142
0	637	210.295619597263	143
0	639	211.659445162467	144
0	655	212.916487759515	145
0	662	214.40754907073	146
0	664	215.944983447041	147
0	666	217.940769755818	148
0	668	218.989826084884	149
0	670	220.292645919208	150
0	672	222.033459291166	151
0	674	223.072820739426	152
0	676	224.819491833752	153
0	678	226.392913114117	154
0	680	228.124618790648	155
0	682	229.675451389584	156
0	684	231.614854869037	157
0	686	232.961256568157	158
0	688	234.5357260274	159
0	690	235.586506008939	160
0	692	237.139938843972	161
0	694	238.559331792942	162
1	9	4.162399960467	0
1	9	4.162399960467	1
1	9	4.162399960467	2
1	9	4.162399960467	3
1	32	16.516323769982	4
1	32	16.516323769982	5
1	32	16.516323769982	6
1	32	16.516323769982	7
1	51	23.746466238634	8
1	51	23.746466238634	9
1	51	23.746466238634	10
1	51	23.746466238634	11
1	66	25.505809419642	12
1	66	25.505809419642	13
1	66	25.505809419642	14
1	66	25.505809419642	15
1	91	40.778032552458	16
1	91	40.778032552458	17
1	91	40.778032552458	18
1	91	40.778032552458	19
1	137	65.530427879487	20
1	137	65.530427879487	21
1	137	65.530427879487	22
1	137	65.530427879487	23
1	148	70.717097198823	24
1	148	70.717097198823	25
1	148	70.717097198823	26
1	148	70.717097198823	27
1	167	78.745369293008	28
1	167	78.745369293008	29
1	167	78.745369293008	30
1	167	78.745369293008	31
1	178	82.809757879214	32
1	178	82.809757879214	33
1	178	82.809757879214	34
1	178	82.809757879214	35
1	205	87.811703416896	36
1	205	87.811703416896	37
1	205	87.811703416896	38
1	205	87.811703416896	39
1	217	88.986343846741	40
1	217	88.986343846741	41
1	217	88.986343846741	42
1	217	88.986343846741	43
1	231	93.071105288539	44
1	231	93.071105288539	45
1	231	93.071105288539	46
1	231	93.071105288539	47
1	253	103.348751008889	48
1	253	103.348751008889	49
1	253	103.348751008889	50
1	253	103.348751008889	51
1	262	106.429645134277	52
1	262	106.429645134277	53
1	262	106.429645134277	54
1	262	106.429645134277	55
1	284	113.658964456773	56
1	284	113.658964456773	57
1	284	113.658964456773	58
1	284	113.658964456773	59
1	291	114.944556693994	60
1	291	114.944556693994	61
1	291	114.944556693994	62
1	291	114.944556693994	63
1	305	117.911992220263	64
1	305	117.911992220263	65
1	305	117.911992220263	66
1	305	117.911992220263	67
1	336	125.681390089525	68
1	336	125.681390089525	69
1	336	125.681390089525	70
1	336	125.681390089525	71
1	352	126.7892235236	72
1	352	126.7892235236	73
1	352	126.7892235236	74
1	352	126.7892235236	75
1	364	129.836151170477	76
1	364	129.836151170477	77
1	364	129.836151170477	78
1	364	129.836151170477	79
1	380	134.388628078124	80
1	380	134.388628078124	81
1	380	134.388628078124	82
1	380	134.388628078124	83
1	392	137.52156109017	84
1	392	137.52156109017	85
1	392	137.52156109017	86
1	392	137.52156109017	87
1	410	143.3542190682	88
1	410	143.3542190682	89
1	410	143.3542190682	90
1	410	143.3542190682	91
1	427	152.454680907826	92
1	427	152.454680907826	93
1	427	152.454680907826	94
1	427	152.454680907826	95
1	440	157.792603406567	96
1	440	157.792603406567	97
1	440	157.792603406567	98
1	440	157.792603406567	99
1	447	158.859430011295	100
1	447	158.859430011295	101
1	447	158.859430011295	102
1	447	158.859430011295	103
1	462	165.341173641186	104
1	462	165.341173641186	105
1	462	165.341173641186	106
1	462	165.341173641186	107
1	480	172.712242177698	108
1	480	172.712242177698	109
1	480	172.712242177698	110
1	480	172.712242177698	111
1	499	182.801672480456	112
1	499	182.801672480456	113
1	499	182.801672480456	114
1	499	182.801672480456	115
1	506	184.638869704727	116
1	506	184.638869704727	117
1	506	184.638869704727	118
1	506	184.638869704727	119
1	529	186.36870872626	120
1	529	186.36870872626	121
1	529	186.36870872626	122
1	529	186.36870872626	123
1	540	191.801243164984	124
1	540	191.801243164984	125
1	540	191.801243164984	126
1	540	191.801243164984	127
1	560	193.022108639666	128
1	560	193.022108639666	129
1	560	193.022108639666	130
1	560	193.022108639666	131
1	575	194.472389686972	132
1	575	194.472389686972	133
1	575	194.472389686972	134
1	575	194.472389686972	135
1	582	196.425542120773	136
1	582	196.425542120773	137
1	582	196.425542120773	138
1	582	196.425542120773	139
1	601	197.535200458996	140
1	601	197.535200458996	141
1	601	197.535200458996	142
1	601	197.535200458996	143
1	615	200.484886778653	144
1	615	200.484886778653	145
1	615	200.484886778653	146
1	615	200.484886778653	147
1	626	204.673556749508	148
1	626	204.673556749508	149
1	626	204.673556749508	150
1	626	204.673556749508	151
1	641	211.678793369384	152
1	641	211.678793369384	153
1	641	211.678793369384	154
1	641	211.678793369384	155
1	657	212.940343523587	156
1	657	212.940343523587	157
1	657	212.940343523587	158
1	657	212.940343523587	159
2	37	16.529324723915	0
2	37	16.529324723915	1
2	37	16.529324723915	2
2	96	40.791289542357	3
2	96	40.791289542357	4
2	96	40.791289542357	5
2	153	70.727850493635	6
2	153	70.727850493635	7
2	153	70.727850493635	8
2	183	82.826301759428	9
2	183	82.826301759428	10
2	183	82.826301759428	11
2	270	106.457813595195	12
2	270	106.457813595195	13
2	270	106.457813595195	14
2	311	117.93415738846	15
2	311	117.93415738846	16
2	311	117.93415738846	17
2	341	125.704103894546	18
2	341	125.704103894546	19
2	341	125.704103894546	20
2	511	184.66832345784	21
2	511	184.66832345784	22
2	511	184.66832345784	23
2	550	191.826827591647	24
2	550	191.826827591647	25
2	550	191.826827591647	26
2	587	196.443174299354	27
2	587	196.443174299354	28
2	587	196.443174299354	29
2	646	211.693819642434	30
2	646	211.693819642434	31
2	646	211.693819642434	32
3	56	23.761375998954	0
3	56	23.761375998954	1
3	187	82.838216014689	2
3	187	82.838216014689	3
3	222	89.002418668728	4
3	222	89.002418668728	5
3	236	93.086451809559	6
3	236	93.086451809559	7
3	267	106.441508834168	8
3	267	106.441508834168	9
3	310	117.933351718911	10
3	310	117.933351718911	11
3	357	126.804464608083	12
3	357	126.804464608083	13
3	385	134.405890687561	14
3	385	134.405890687561	15
3	397	137.553108317479	16
3	397	137.553108317479	17
3	467	165.365471554808	18
3	467	165.365471554808	19
3	521	184.726121789565	20
3	521	184.726121789565	21
3	570	193.067019448893	22
3	570	193.067019448893	23
3	596	196.470688486347	24
3	596	196.470688486347	25
4	59	23.771584298423	0
4	59	23.771584298423	1
4	59	23.771584298423	2
4	59	23.771584298423	3
4	97	40.79136615335	4
4	97	40.79136615335	5
4	97	40.79136615335	6
4	97	40.79136615335	7
4	194	82.863621214057	8
4	194	82.863621214057	9
4	194	82.863621214057	10
4	194	82.863621214057	11
4	210	87.840739588834	12
4	210	87.840739588834	13
4	210	87.840739588834	14
4	210	87.840739588834	15
4	296	114.959005629876	16
4	296	114.959005629876	17
4	296	114.959005629876	18
4	296	114.959005629876	19
4	317	117.946450762514	20
4	317	117.946450762514	21
4	317	117.946450762514	22
4	317	117.946450762514	23
4	342	125.707487335417	24
4	342	125.707487335417	25
4	342	125.707487335417	26
4	342	125.707487335417	27
4	369	129.858886229899	28
4	369	129.858886229899	29
4	369	129.858886229899	30
4	369	129.858886229899	31
4	515	184.695951209366	32
4	515	184.695951209366	33
4	515	184.695951209366	34
4	515	184.695951209366	35
4	545	191.811476086406	36
4	545	191.811476086406	37
4	545	191.811476086406	38
4	545	191.811476086406	39
4	565	193.034410819224	40
4	565	193.034410819224	41
4	565	193.034410819224	42
4	565	193.034410819224	43
4	591	196.453931422133	44
4	591	196.453931422133	45
4	591	196.453931422133	46
4	591	196.453931422133	47
4	606	197.555175795279	48
4	606	197.555175795279	49
4	606	197.555175795279	50
4	606	197.555175795279	51
4	650	211.710999236454	52
4	650	211.710999236454	53
4	650	211.710999236454	54
4	650	211.710999236454	55
5	188	82.847099446007	0
5	188	82.847099446007	1
5	188	82.847099446007	2
5	322	117.960053265672	3
5	322	117.960053265672	4
5	322	117.960053265672	5
5	520	184.717221221721	6
5	520	184.717221221721	7
5	520	184.717221221721	8
5	554	191.843311082131	9
5	554	191.843311082131	10
5	554	191.843311082131	11

