version 2
run General-0-20230921-23:26:41-9324
attr configname General
attr datetime 20230921-23:26:41
attr experiment General
attr inifile omnetpp.ini
attr iterationvars ""
attr iterationvarsf ""
attr measurement ""
attr network Network3
attr processid 9324
attr repetition 0
attr replication #0
attr resultdir results
attr runnumber 0
attr seedset 0
param Network3.node[*].transmissionTime "uniform(1s, 2s)"
param Network3.node[*].delayTime "uniform(0.01s, 0.2s)"
param Network3.node[*].processingTime exponential(0.01s)
param Network3.node[0].lossProbability 0
param Network3.node[1].lossProbability 0.0
param Network3.node[2].lossProbability 0.0
param Network3.node[3].lossProbability "0.0 / 2"
param Network3.node[4].lossProbability "0.0 / 2"
param Network3.node[6].lossProbability "0.0 * 2"
param Network3.node[7].lossProbability "0.0 * 2"
param Network3.node[5].lossProbability "0.0 * 3"

vector 0 Network3.node[0] txVector ETV
vector 1 Network3.node[2] txVector ETV
vector 2 Network3.node[4] txVector ETV
vector 3 Network3.node[7] txVector ETV
vector 4 Network3.node[5] rxVector ETV
vector 5 Network3.node[1] txVector ETV
vector 6 Network3.node[3] txVector ETV
vector 7 Network3.node[6] txVector ETV
0	1	0.114274565438	0
0	25	1.82946393041	1
0	33	3.699476075667	2
0	41	5.339397092658	3
0	49	7.113630779163	4
0	57	8.730564777815	5
0	73	9.790790244314	6
0	89	10.952099755482	7
0	101	12.049201026634	8
0	109	13.332007986103	9
0	133	14.396155487123	10
0	165	16.073972026427	11
0	173	17.497827070375	12
0	181	19.115842497285	13
0	189	20.690167753102	14
0	197	22.126032672433	15
0	205	23.840273970814	16
0	213	24.964093953214	17
0	221	26.661522725673	18
0	241	27.673236807186	19
0	253	29.294715213898	20
0	261	30.692936281284	21
0	269	31.920350910473	22
0	281	33.298102747725	23
0	289	34.514999728726	24
0	317	35.898463619949	25
0	325	37.176092328347	26
0	349	38.892952008249	27
0	361	39.909381639521	28
0	369	41.785886881949	29
0	377	43.585089466611	30
0	385	44.598326323398	31
0	401	46.237798839884	32
0	409	48.011846176192	33
0	425	49.065273353673	34
0	433	50.792317617528	35
0	441	52.248458181584	36
0	449	54.037003696041	37
0	457	55.410816835549	38
0	485	56.455429132872	39
0	509	58.337470547839	40
0	521	60.289345022601	41
0	533	61.713377274417	42
0	541	63.114636771458	43
0	553	64.441337658169	44
0	569	65.694528849174	45
0	577	66.759833055393	46
0	585	68.425692169539	47
0	593	69.840549039732	48
0	601	71.189068403173	49
0	613	73.181079647349	50
0	621	74.453516545085	51
0	637	75.902808193195	52
0	649	77.897208981294	53
0	657	79.792594865974	54
0	665	81.199328207722	55
0	677	82.705194592089	56
0	685	83.958837114586	57
0	693	85.581221537045	58
0	709	87.124899591165	59
0	729	88.747130652503	60
0	737	90.560809301059	61
0	745	92.080761678829	62
0	757	93.967722459543	63
0	785	95.797619829732	64
0	793	97.705352787473	65
0	801	99.70331503971	66
0	809	101.031303038667	67
0	821	102.269716313887	68
0	833	103.860743210964	69
0	841	105.750536865635	70
0	849	106.992438570909	71
0	869	108.099442709317	72
0	877	109.340999749336	73
0	885	110.798058507345	74
0	893	112.201851251149	75
0	901	113.601012397171	76
0	917	115.327354859407	77
0	925	117.286497109416	78
0	933	118.810680964575	79
0	941	120.183896921421	80
0	949	121.44893662197	81
0	957	123.222392164715	82
0	965	124.571832460197	83
0	973	125.964401242402	84
0	981	127.465464410684	85
0	989	128.742804681263	86
0	1021	129.746665034057	87
0	1029	131.738555363226	88
0	1049	132.955012624231	89
0	1057	134.030371694672	90
0	1065	135.147897338574	91
0	1073	136.631290878947	92
0	1089	138.340326337456	93
0	1101	139.743352340381	94
0	1109	140.958750546524	95
0	1125	142.686638703184	96
0	1141	144.159781680522	97
0	1149	145.336787456493	98
0	1165	146.61962430839	99
0	1173	147.936166873048	100
0	1185	149.663713869019	101
0	1193	151.529659338374	102
0	1201	153.027838903092	103
0	1217	154.376030845413	104
0	1225	155.472481706724	105
0	1233	156.787055000276	106
0	1241	158.61391660253	107
0	1249	159.656840795963	108
0	1257	160.807775692861	109
0	1265	162.513485733266	110
0	1273	164.32868512495	111
0	1281	165.674190784186	112
0	1293	167.297084813785	113
0	1301	169.031898591049	114
0	1309	170.566806791197	115
0	1325	172.290748188119	116
0	1333	174.027601350411	117
0	1341	175.620481618294	118
0	1353	177.140563039189	119
0	1361	178.552178557809	120
0	1377	180.172678451832	121
0	1389	182.137603397561	122
0	1397	183.764309874816	123
0	1413	185.239634655496	124
0	1421	186.944582715943	125
0	1437	187.995658194959	126
0	1449	189.635120967483	127
0	1461	191.33597661004	128
0	1469	192.353037096407	129
0	1477	193.618942727182	130
0	1489	195.091356515964	131
0	1497	196.126516577634	132
0	1525	197.237038874612	133
0	1533	198.339485156429	134
0	1541	199.36406218152	135
0	1549	200.680612386283	136
0	1557	202.106614775569	137
0	1565	203.905304024075	138
0	1577	205.88915785084	139
0	1585	207.312212289157	140
0	1597	209.17907320064	141
0	1605	210.19853567014	142
0	1617	211.85153543049	143
0	1645	212.902542744144	144
0	1653	213.907197577725	145
0	1661	215.18531409333	146
0	1669	216.754601013227	147
0	1677	218.150234677908	148
0	1705	219.84398170359	149
0	1721	221.392828035015	150
0	1729	223.339635206699	151
0	1741	224.491999685844	152
0	1753	226.113140013381	153
0	1773	227.813668642272	154
0	1781	229.118715341747	155
0	1789	230.88691000299	156
0	1797	232.590099023035	157
0	1805	234.003879245449	158
0	1821	235.581469336836	159
0	1829	237.538339902493	160
0	1845	239.482372363643	161
1	3	0.133506796753	0
1	27	1.877916149101	1
1	35	3.711023372472	2
1	59	8.751553902491	3
1	183	19.136432591139	4
1	207	23.86911325968	5
1	215	24.980136943932	6
1	223	26.675985253878	7
1	243	27.691846043553	8
1	255	29.307070459632	9
1	263	30.705871357803	10
1	291	34.533874748011	11
1	351	38.929477593404	12
1	363	39.923508938188	13
1	379	43.599354824731	14
1	387	44.612924236576	15
1	411	48.03477765478	16
1	427	49.07842495396	17
1	435	50.813815031405	18
1	443	52.259043460573	19
1	459	55.43690101404	20
1	487	56.471565174969	21
1	511	58.356044898865	22
1	543	63.127286120834	23
1	571	65.719818237881	24
1	579	66.777116831123	25
1	603	71.201937494127	26
1	615	73.195844805559	27
1	651	77.941565215219	28
1	679	82.721102944293	29
1	695	85.594544143281	30
1	711	87.138171694978	31
1	731	88.764260217294	32
1	739	90.582649578422	33
1	795	97.719849921152	34
1	811	101.048529061042	35
1	823	102.290480218481	36
1	843	105.766198161152	37
1	851	107.011347108928	38
1	903	113.618711016529	39
1	919	115.338445178043	40
1	927	117.301039985187	41
1	943	120.194581310175	42
1	959	123.247600923791	43
1	967	124.602900381456	44
1	991	128.754771888149	45
1	1023	129.761392969504	46
1	1031	131.750371155403	47
1	1051	132.970540617566	48
1	1059	134.077620438413	49
1	1067	135.158305483578	50
1	1075	136.672154850336	51
1	1091	138.364000394646	52
1	1127	142.718033478414	53
1	1151	145.35093702232	54
1	1167	146.63554605643	55
1	1175	147.949590557177	56
1	1187	149.67953567955	57
1	1203	153.040214558521	58
1	1243	158.627967334822	59
1	1251	159.670849558099	60
1	1259	160.822804817028	61
1	1267	162.525940428087	62
1	1275	164.345225560575	63
1	1283	165.685372946136	64
1	1303	169.045326988308	65
1	1311	170.584997836631	66
1	1327	172.301776008439	67
1	1335	174.037702497167	68
1	1355	177.157285875306	69
1	1391	182.160606164856	70
1	1415	185.255058452433	71
1	1423	186.988255499065	72
1	1463	191.380105742667	73
1	1491	195.125025770696	74
1	1499	196.146481607038	75
1	1527	197.25209768392	76
1	1535	198.359536018657	77
1	1543	199.391595568561	78
1	1551	200.712934320709	79
1	1559	202.142313611129	80
1	1567	203.927255154023	81
1	1579	205.901376681021	82
1	1607	210.212756024012	83
1	1647	212.918074056355	84
1	1671	216.795716021304	85
1	1707	219.860393442549	86
1	1723	221.42148128256	87
1	1731	223.405029600187	88
1	1775	227.831832811216	89
1	1791	230.926724333777	90
1	1807	234.014661858928	91
1	1847	239.500138694189	92
2	5	0.162296437295	0
2	9	0.196209621693	1
2	13	0.255853207975	2
2	17	0.288368669198	3
2	21	0.319551647836	4
2	29	1.90405616985	5
2	37	3.735237019273	6
2	45	5.366940697163	7
2	53	7.168387390144	8
2	61	8.763428163151	9
2	65	8.794169065633	10
2	69	8.83267205362	11
2	77	9.826728318236	12
2	81	9.85365610062	13
2	85	9.899403175924	14
2	93	11.026033828398	15
2	97	11.052930463626	16
2	113	13.383832286599	17
2	117	13.436642921183	18
2	121	13.483229487977	19
2	125	13.523055619828	20
2	129	13.553127098212	21
2	137	14.422706171114	22
2	141	14.450609818905	23
2	145	14.501317096006	24
2	149	14.565673402113	25
2	153	14.594510828412	26
2	157	14.639563210797	27
2	161	14.682135388974	28
2	177	17.524512152061	29
2	185	19.15030389206	30
2	193	20.740117668269	31
2	209	23.884413288461	32
2	217	24.990656069454	33
2	225	26.699848167398	34
2	229	26.731349267625	35
2	233	26.757762195769	36
2	237	26.79137015396	37
2	245	27.750637372433	38
2	249	27.800127389183	39
2	257	29.31953905232	40
2	265	30.716452081424	41
2	277	32.004293129709	42
2	285	33.33045775239	43
2	293	34.551208424743	44
2	297	34.597358345442	45
2	301	34.625502269256	46
2	305	34.650535855487	47
2	309	34.705036325486	48
2	313	34.72696504935	49
2	333	37.242385925646	50
2	337	37.304335715274	51
2	341	37.361573799543	52
2	345	37.392702508823	53
2	353	38.957377489449	54
2	357	38.982691010212	55
2	365	39.939581731074	56
2	381	43.624515514029	57
2	389	44.628514313276	58
2	393	44.651905448531	59
2	397	44.681356495196	60
2	413	48.052401891622	61
2	417	48.076876350522	62
2	421	48.113684170157	63
2	429	49.09738824601	64
2	437	50.842963453981	65
2	445	52.271357670293	66
2	461	55.453240335305	67
2	465	55.482258891734	68
2	469	55.527939826864	69
2	473	55.556626525547	70
2	477	55.583818809971	71
2	481	55.63653297308	72
2	489	56.502531537704	73
2	493	56.552379969565	74
2	497	56.576625200069	75
2	501	56.599467979653	76
2	505	56.658450785782	77
2	513	58.367760285139	78
2	517	58.405654849952	79
2	529	60.383700798358	80
2	537	61.769264176898	81
2	545	63.155581542393	82
2	549	63.18623225529	83
2	561	64.503821114277	84
2	565	64.546890768984	85
2	573	65.730548754453	86
2	581	66.794001970003	87
2	589	68.45467595655	88
2	605	71.218661323147	89
2	609	71.246184680035	90
2	617	73.209766418455	91
2	625	74.481483982041	92
2	629	74.510713782468	93
2	633	74.555198745858	94
2	641	75.938280757072	95
2	645	75.971843501729	96
2	653	77.990474316123	97
2	669	81.245569293971	98
2	673	81.283454019435	99
2	681	82.738286602645	100
2	689	84.002538667375	101
2	697	85.614624278686	102
2	701	85.634951764228	103
2	705	85.687462339224	104
2	713	87.159912396346	105
2	717	87.1962647113	106
2	721	87.248572643358	107
2	725	87.295692092467	108
2	733	88.774555535406	109
2	741	90.598830102193	110
2	749	92.115588954928	111
2	753	92.160899457276	112
2	761	94.023466655552	113
2	765	94.048218335671	114
2	769	94.080463049627	115
2	773	94.115072231091	116
2	777	94.15571563178	117
2	781	94.208715957785	118
2	789	95.833163135479	119
2	797	97.740321843707	120
2	813	101.084870375001	121
2	817	101.117971404444	122
2	825	102.300863106459	123
2	829	102.352947647379	124
2	845	105.796683992718	125
2	853	107.049612348634	126
2	857	107.119312695494	127
2	861	107.158579922444	128
2	865	107.189362946901	129
2	889	110.824485749102	130
2	905	113.646627559888	131
2	909	113.684340868907	132
2	913	113.725275096252	133
2	921	115.370638133261	134
2	929	117.315428526957	135
2	945	120.207100058022	136
2	961	123.262516377379	137
2	969	124.615041203403	138
2	993	128.766636384491	139
2	997	128.81737840491	140
2	1001	128.862564875779	141
2	1005	128.936860738743	142
2	1009	128.983399240282	143
2	1013	129.014806903696	144
2	1017	129.05195870353	145
2	1025	129.772065939176	146
2	1033	131.773152018342	147
2	1037	131.801488063948	148
2	1041	131.876966849427	149
2	1045	131.928451071584	150
2	1053	133.001557553407	151
2	1061	134.087647244996	152
2	1069	135.194533738797	153
2	1077	136.691322589053	154
2	1081	136.737051175239	155
2	1085	136.76311090758	156
2	1093	138.385334277249	157
2	1097	138.406005789821	158
2	1117	141.041072928839	159
2	1121	141.079728143467	160
2	1129	142.736591970628	161
2	1133	142.76568754329	162
2	1137	142.800757927265	163
2	1153	145.367417725917	164
2	1157	145.391261153991	165
2	1161	145.422480755805	166
2	1169	146.648644077776	167
2	1177	147.964306514382	168
2	1181	148.011246337908	169
2	1189	149.69347050352	170
2	1205	153.058783789536	171
2	1209	153.131495777295	172
2	1213	153.155221117775	173
2	1237	156.853221340919	174
2	1245	158.646752289727	175
2	1253	159.688042525822	176
2	1261	160.83981152745	177
2	1269	162.572666023939	178
2	1277	164.369245330045	179
2	1285	165.714622304513	180
2	1289	165.745184624772	181
2	1297	167.324898777286	182
2	1305	169.070955503852	183
2	1313	170.607039048232	184
2	1317	170.653446699194	185
2	1321	170.688522688876	186
2	1329	172.312191629627	187
2	1337	174.074415743871	188
2	1349	175.691119478014	189
2	1357	177.182615939364	190
2	1365	178.583822696204	191
2	1369	178.64358192335	192
2	1373	178.722657945185	193
2	1381	180.208787308857	194
2	1385	180.253060983898	195
2	1393	182.173709371003	196
2	1401	183.819253809703	197
2	1405	183.857167914933	198
2	1409	183.906335542544	199
2	1417	185.272532639188	200
2	1425	187.008497246855	201
2	1429	187.028787700705	202
2	1433	187.052199470181	203
2	1441	188.028323192574	204
2	1445	188.11158453189	205
2	1453	189.681290549448	206
2	1457	189.703212470488	207
2	1465	191.391359331294	208
2	1473	192.405507628678	209
2	1481	193.667296736975	210
2	1485	193.701972668644	211
2	1493	195.138695519475	212
2	1501	196.160994822894	213
2	1505	196.194837582372	214
2	1509	196.220175909348	215
2	1513	196.252745376047	216
2	1517	196.308225359173	217
2	1521	196.372588128373	218
2	1529	197.264848507058	219
2	1537	198.379884912958	220
2	1545	199.401648860712	221
2	1553	200.723277870781	222
2	1561	202.159117709654	223
2	1569	203.946460992254	224
2	1573	204.008335773036	225
2	1581	205.930263010585	226
2	1593	207.395364073865	227
2	1609	210.234301476465	228
2	1613	210.260213007871	229
2	1621	211.882029758906	230
2	1625	211.904211989494	231
2	1629	211.964963819869	232
2	1633	212.028466304358	233
2	1637	212.055589972535	234
2	1641	212.098695132983	235
2	1649	212.932987049508	236
2	1657	213.938456809439	237
2	1673	216.80606448177	238
2	1681	218.197202096752	239
2	1685	218.280029002936	240
2	1689	218.349110550778	241
2	1693	218.414304702562	242
2	1697	218.435698928143	243
2	1701	218.480802783555	244
2	1709	219.873498799026	245
2	1713	219.895922768353	246
2	1717	219.922097817927	247
2	1725	221.451614725118	248
2	1733	223.417783130461	249
2	1737	223.442627496574	250
2	1745	224.52466335491	251
2	1749	224.567412570155	252
2	1757	226.170339229735	253
2	1761	226.246375586287	254
2	1765	226.286909654994	255
2	1769	226.337589186757	256
2	1777	227.842683828017	257
2	1785	229.172522172971	258
2	1793	230.944004233345	259
2	1809	234.037583206706	260
2	1813	234.088911266918	261
2	1817	234.135957631238	262
2	1837	237.60625713952	263
2	1841	237.629863388316	264
2	1849	239.517943678083	265
2	1853	239.54639920668	266
2	1857	239.577896591129	267
3	7	0.182678030302	0
3	11	0.239358744492	1
3	15	0.273379949108	2
3	19	0.299105522753	3
3	23	0.34742652447	4
3	31	1.92922152959	5
3	39	3.750592676475	6
3	47	5.386554506554	7
3	55	7.184132714211	8
3	63	8.774808450035	9
3	67	8.812613343568	10
3	71	8.843748404702	11
3	79	9.839531088321	12
3	83	9.874336822591	13
3	87	9.914003315501	14
3	95	11.042357194362	15
3	99	11.076372916348	16
3	115	13.401239876103	17
3	119	13.47313548047	18
3	123	13.494642795113	19
3	127	13.535079124214	20
3	131	13.580784508936	21
3	139	14.435566380839	22
3	143	14.469102027021	23
3	147	14.517243336281	24
3	151	14.579203603446	25
3	155	14.625805822373	26
3	159	14.661357040133	27
3	163	14.723390072551	28
3	171	16.130440534374	29
3	179	17.542951036787	30
3	187	19.182990231987	31
3	195	20.751173794705	32
3	203	22.248961606281	33
3	211	23.899641988762	34
3	219	25.037755675373	35
3	227	26.717209478398	36
3	231	26.741536222329	37
3	235	26.771998766783	38
3	239	26.801693722006	39
3	247	27.770155669508	40
3	251	27.823225242897	41
3	259	29.342992526652	42
3	267	30.730188779368	43
3	275	31.98298957425	44
3	279	32.036991529867	45
3	287	33.354661586946	46
3	295	34.581816637152	47
3	299	34.609411823129	48
3	303	34.637929454193	49
3	307	34.663465370072	50
3	311	34.715296302938	51
3	315	34.74165181411	52
3	331	37.231052519413	53
3	335	37.28059228513	54
3	339	37.337740634881	55
3	343	37.38035595033	56
3	347	37.405457788193	57
3	355	38.970686588261	58
3	359	38.999339087708	59
3	367	39.979403737829	60
3	375	41.851636880742	61
3	383	43.641023487453	62
3	391	44.640619646158	63
3	395	44.662935132168	64
3	399	44.723756124865	65
3	407	46.278086312399	66
3	415	48.063991223419	67
3	419	48.098025224741	68
3	423	48.131834353466	69
3	431	49.110977859194	70
3	439	50.857742633856	71
3	447	52.29638179823	72
3	463	55.466904848223	73
3	467	55.502631342675	74
3	471	55.545073669692	75
3	475	55.569878234252	76
3	479	55.625147104866	77
3	483	55.654381343276	78
3	491	56.535970234112	79
3	495	56.566350779065	80
3	499	56.589369835289	81
3	503	56.641450529421	82
3	507	56.6879505549	83
3	515	58.394662634687	84
3	519	58.420737044493	85
3	527	60.367833110291	86
3	531	60.393865431198	87
3	539	61.799627118771	88
3	547	63.165738833631	89
3	551	63.199134989441	90
3	559	64.489131901004	91
3	563	64.519081422235	92
3	567	64.563630203426	93
3	575	65.751410787565	94
3	583	66.80738543119	95
3	591	68.465146949261	96
3	607	71.231319488637	97
3	611	71.269304310846	98
3	619	73.222481976372	99
3	627	74.498463357529	100
3	631	74.5409096275	101
3	635	74.577224319305	102
3	643	75.949933687195	103
3	647	75.991109887732	104
3	655	78.009444846264	105
3	671	81.26945606671	106
3	675	81.313282145238	107
3	683	82.761761090882	108
3	691	84.023816271711	109
3	699	85.624703432151	110
3	703	85.670476529163	111
3	707	85.697708475665	112
3	715	87.178519543421	113
3	719	87.235996794695	114
3	723	87.267745361327	115
3	727	87.305862248704	116
3	735	88.785578553216	117
3	743	90.6141115421	118
3	751	92.146129479767	119
3	755	92.178694807564	120
3	763	94.035387611313	121
3	767	94.061785498198	122
3	771	94.096376077483	123
3	775	94.135893249936	124
3	779	94.177638154201	125
3	783	94.219334119271	126
3	791	95.850690831999	127
3	799	97.789208290935	128
3	815	101.09898738078	129
3	819	101.128989560864	130
3	827	102.315200101163	131
3	831	102.379716994709	132
3	839	103.909981977904	133
3	847	105.838562834441	134
3	855	107.087074867336	135
3	859	107.134098461205	136
3	863	107.179273233028	137
3	867	107.206250055341	138
3	875	108.160344465429	139
3	891	110.846995235709	140
3	907	113.661825779337	141
3	911	113.70770655308	142
3	915	113.747422653338	143
3	923	115.388293524084	144
3	931	117.33272974716	145
3	939	118.853411204751	146
3	947	120.218868865083	147
3	963	123.272810176852	148
3	971	124.639282513559	149
3	987	127.508409400378	150
3	995	128.797998323754	151
3	999	128.834463765664	152
3	1003	128.899275125514	153
3	1007	128.967848923029	154
3	1011	128.996245242122	155
3	1015	129.030941084357	156
3	1019	129.083218009229	157
3	1027	129.793326467153	158
3	1035	131.789186806266	159
3	1039	131.830082129672	160
3	1043	131.905472705893	161
3	1047	131.940151642472	162
3	1055	133.014388571697	163
3	1063	134.100420320285	164
3	1071	135.209272354587	165
3	1079	136.716017922212	166
3	1083	136.750455957154	167
3	1087	136.775498993174	168
3	1095	138.395339738449	169
3	1099	138.418340926881	170
3	1115	141.023792700009	171
3	1119	141.063627435554	172
3	1123	141.090862190689	173
3	1131	142.751268211401	174
3	1135	142.789054153678	175
3	1139	142.835953828855	176
3	1147	144.225419721734	177
3	1155	145.379017081956	178
3	1159	145.408031771115	179
3	1163	145.440087921823	180
3	1171	146.68329167914	181
3	1179	147.990182807258	182
3	1183	148.034560381412	183
3	1191	149.711860236349	184
3	1207	153.093861012889	185
3	1211	153.143424007183	186
3	1215	153.165806706258	187
3	1239	156.865665909845	188
3	1247	158.673901520768	189
3	1255	159.700621978115	190
3	1263	160.853905920577	191
3	1271	162.586102777789	192
3	1279	164.401268014499	193
3	1287	165.728427601614	194
3	1291	165.755901546953	195
3	1299	167.420508959879	196
3	1307	169.106430016361	197
3	1315	170.637740471614	198
3	1319	170.67819688234	199
3	1323	170.701130720438	200
3	1331	172.324787715424	201
3	1339	174.08486546055	202
3	1347	175.660850608443	203
3	1351	175.707220481036	204
3	1359	177.206609334988	205
3	1367	178.612684184473	206
3	1371	178.708345111864	207
3	1375	178.733363168831	208
3	1383	180.22187028437	209
3	1387	180.264590366265	210
3	1395	182.194268479996	211
3	1403	183.835865506544	212
3	1407	183.86981763629	213
3	1411	183.928893231162	214
3	1419	185.289691103661	215
3	1427	187.018503891217	216
3	1431	187.040844391905	217
3	1435	187.065273551683	218
3	1443	188.03984256116	219
3	1447	188.131198902949	220
3	1455	189.692572035307	221
3	1459	189.714268873244	222
3	1467	191.404868388011	223
3	1475	192.422826299073	224
3	1483	193.681724636195	225
3	1487	193.715021628587	226
3	1495	195.167788024374	227
3	1503	196.180241152092	228
3	1507	196.20485825003	229
3	1511	196.234187262844	230
3	1515	196.292276297496	231
3	1519	196.333916067646	232
3	1523	196.385088371229	233
3	1531	197.279154762119	234
3	1539	198.405992080146	235
3	1547	199.425553181607	236
3	1555	200.742208139677	237
3	1563	202.175778324673	238
3	1571	203.98539739197	239
3	1575	204.044291254096	240
3	1583	205.95074793276	241
3	1591	207.374945254876	242
3	1595	207.416396852246	243
3	1603	209.250185204411	244
3	1611	210.245339653162	245
3	1615	210.287164111412	246
3	1623	211.893635894986	247
3	1627	211.954956901974	248
3	1631	211.976226433174	249
3	1635	212.044595114114	250
3	1639	212.07394426251	251
3	1643	212.109934436319	252
3	1651	212.943884049609	253
3	1659	213.964828109704	254
3	1675	216.82146941569	255
3	1683	218.21336164737	256
3	1687	218.328798608971	257
3	1691	218.380976439389	258
3	1695	218.424668673461	259
3	1699	218.461125533174	260
3	1703	218.49437883964	261
3	1711	219.884578179774	262
3	1715	219.907428041563	263
3	1719	219.93612155004	264
3	1727	221.479395132164	265
3	1735	223.431268301576	266
3	1739	223.463944277252	267
3	1747	224.547106805689	268
3	1751	224.579245019802	269
3	1759	226.231895411516	270
3	1763	226.256519126667	271
3	1767	226.317018867715	272
3	1771	226.348045136183	273
3	1779	227.86364612124	274
3	1787	229.185507031426	275
3	1795	230.955854599093	276
3	1803	232.652325611733	277
3	1811	234.062132839031	278
3	1815	234.113487454901	279
3	1819	234.153796069524	280
3	1835	237.589709767223	281
3	1839	237.619463266094	282
3	1843	237.660524253603	283
3	1851	239.529009596285	284
3	1855	239.564521513828	285
3	1859	239.621632689189	286
4	24	0.35742652447	0
4	32	1.93922152959	1
4	40	3.760592676475	2
4	48	5.396554506554	3
4	56	7.194132714211	4
4	72	8.853748404702	5
4	88	9.924003315501	6
4	100	11.086372916348	7
4	108	12.10086506662	8
4	132	13.590784508936	9
4	164	14.733390072551	10
4	172	16.140440534374	11
4	180	17.552951036787	12
4	188	19.192990231987	13
4	196	20.761173794705	14
4	204	22.258961606281	15
4	212	23.909641988762	16
4	220	25.047755675373	17
4	240	26.811693722006	18
4	252	27.833225242897	19
4	260	29.352992526652	20
4	268	30.740188779368	21
4	280	32.046991529867	22
4	288	33.364661586946	23
4	316	34.75165181411	24
4	324	35.968333514474	25
4	348	37.415457788193	26
4	360	39.009339087708	27
4	368	39.989403737829	28
4	376	41.861636880742	29
4	384	43.651023487453	30
4	400	44.733756124865	31
4	408	46.288086312399	32
4	424	48.141834353466	33
4	432	49.120977859194	34
4	440	50.867742633856	35
4	448	52.30638179823	36
4	456	54.110316824004	37
4	484	55.664381343276	38
4	508	56.6979505549	39
4	520	58.430737044493	40
4	532	60.403865431198	41
4	540	61.809627118771	42
4	552	63.209134989441	43
4	568	64.573630203426	44
4	576	65.761410787565	45
4	584	66.81738543119	46
4	592	68.475146949261	47
4	600	69.925763352544	48
4	612	71.279304310846	49
4	620	73.232481976372	50
4	636	74.587224319305	51
4	648	76.001109887732	52
4	656	78.019444846264	53
4	664	79.84895150031	54
4	676	81.323282145238	55
4	684	82.771761090882	56
4	692	84.033816271711	57
4	708	85.707708475665	58
4	728	87.315862248704	59
4	736	88.795578553216	60
4	744	90.6241115421	61
4	756	92.188694807564	62
4	784	94.229334119271	63
4	792	95.860690831999	64
4	800	97.799208290935	65
4	808	99.787211124181	66
4	820	101.138989560864	67
4	832	102.389716994709	68
4	840	103.919981977904	69
4	848	105.848562834441	70
4	868	107.216250055341	71
4	876	108.170344465429	72
4	884	109.422402176449	73
4	892	110.856995235709	74
4	900	112.27562144311	75
4	916	113.757422653338	76
4	924	115.398293524084	77
4	932	117.34272974716	78
4	940	118.863411204751	79
4	948	120.228868865083	80
4	956	121.504743424046	81
4	964	123.282810176852	82
4	972	124.649282513559	83
4	980	126.023983817496	84
4	988	127.518409400378	85
4	1020	129.093218009229	86
4	1028	129.803326467153	87
4	1048	131.950151642472	88
4	1056	133.024388571697	89
4	1064	134.110420320285	90
4	1072	135.219272354587	91
4	1088	136.785498993174	92
4	1100	138.428340926881	93
4	1108	139.813912681854	94
4	1124	141.100862190689	95
4	1140	142.845953828855	96
4	1148	144.235419721734	97
4	1164	145.450087921823	98
4	1172	146.69329167914	99
4	1184	148.044560381412	100
4	1192	149.721860236349	101
4	1200	151.609611824152	102
4	1216	153.175806706258	103
4	1224	154.448766195297	104
4	1232	155.554650435701	105
4	1240	156.875665909845	106
4	1248	158.683901520768	107
4	1256	159.710621978115	108
4	1264	160.863905920577	109
4	1272	162.596102777789	110
4	1280	164.411268014499	111
4	1292	165.765901546953	112
4	1300	167.430508959879	113
4	1308	169.116430016361	114
4	1324	170.711130720438	115
4	1332	172.334787715424	116
4	1340	174.09486546055	117
4	1352	175.717220481036	118
4	1360	177.216609334988	119
4	1376	178.743363168831	120
4	1388	180.274590366265	121
4	1396	182.204268479996	122
4	1412	183.938893231162	123
4	1420	185.299691103661	124
4	1436	187.075273551683	125
4	1448	188.141198902949	126
4	1460	189.724268873244	127
4	1468	191.414868388011	128
4	1476	192.432826299073	129
4	1488	193.725021628587	130
4	1496	195.177788024374	131
4	1524	196.395088371229	132
4	1532	197.289154762119	133
4	1540	198.415992080146	134
4	1548	199.435553181607	135
4	1556	200.752208139677	136
4	1564	202.185778324673	137
4	1576	204.054291254096	138
4	1584	205.96074793276	139
4	1596	207.426396852246	140
4	1604	209.260185204411	141
4	1616	210.297164111412	142
4	1644	212.119934436319	143
4	1652	212.953884049609	144
4	1660	213.974828109704	145
4	1668	215.250615480109	146
4	1676	216.83146941569	147
4	1704	218.50437883964	148
4	1720	219.94612155004	149
4	1728	221.489395132164	150
4	1740	223.473944277252	151
4	1752	224.589245019802	152
4	1772	226.358045136183	153
4	1780	227.87364612124	154
4	1788	229.195507031426	155
4	1796	230.965854599093	156
4	1804	232.662325611733	157
4	1820	234.163796069524	158
4	1828	235.648616428456	159
4	1844	237.670524253603	160
4	1860	239.631632689189	161
5	43	5.35548791689	0
5	51	7.152409929376	1
5	75	9.811377671465	2
5	91	10.980297944675	3
5	103	12.060481594287	4
5	111	13.353799881374	5
5	135	14.409302703732	6
5	167	16.093296055231	7
5	175	17.513426681076	8
5	191	20.722416899674	9
5	199	22.203686577632	10
5	271	31.932330587826	11
5	283	33.318981792061	12
5	319	35.917301476509	13
5	327	37.19113512768	14
5	371	41.805841518383	15
5	403	46.251850668707	16
5	451	54.055861302501	17
5	523	60.302338306425	18
5	535	61.749869157039	19
5	555	64.452742415339	20
5	587	68.440163568565	21
5	595	69.86742122262	22
5	623	74.467147333487	23
5	639	75.918819739659	24
5	659	79.810626233693	25
5	667	81.21304436527	26
5	687	83.981234095392	27
5	747	92.100406676447	28
5	759	94.012232560837	29
5	787	95.821086102617	30
5	803	99.72472028446	31
5	835	103.885206286686	32
5	871	108.111294269852	33
5	879	109.390101157033	34
5	887	110.813163633104	35
5	895	112.217503367497	36
5	935	118.823202361339	37
5	951	121.465032213778	38
5	975	125.979123529888	39
5	983	127.482895767227	40
5	1103	139.772895428098	41
5	1111	140.978896814067	42
5	1143	144.176388831456	43
5	1195	151.559817513017	44
5	1219	154.405943001818	45
5	1227	155.493191257188	46
5	1235	156.809985719655	47
5	1295	167.309026723573	48
5	1343	175.630793027628	49
5	1363	178.572384582656	50
5	1379	180.195386313026	51
5	1399	183.80911418902	52
5	1439	188.013012017383	53
5	1451	189.6695721759	54
5	1471	192.380648231843	55
5	1479	193.634709816733	56
5	1587	207.339148680779	57
5	1599	209.194168505013	58
5	1619	211.871401508586	59
5	1655	213.919052596061	60
5	1663	215.202490146228	61
5	1679	218.185044660668	62
5	1743	224.503028988987	63
5	1755	226.144602461227	64
5	1783	229.136217062621	65
5	1799	232.61169476258	66
5	1823	235.594726498909	67
5	1831	237.548713717285	68
6	105	12.077038057131	0
6	169	16.109647332387	1
6	201	22.23718835053	2
6	273	31.961614189195	3
6	321	35.941048276047	4
6	329	37.219487761709	5
6	373	41.822735863761	6
6	405	46.265443607758	7
6	453	54.088122142395	8
6	525	60.325895491564	9
6	557	64.469495974041	10
6	597	69.882230004863	11
6	661	79.823814644177	12
6	805	99.760717016913	13
6	837	103.8983839801	14
6	873	108.143983960718	15
6	881	109.401154301225	16
6	897	112.23833884938	17
6	937	118.840908671947	18
6	953	121.479069742849	19
6	977	125.997132616717	20
6	985	127.497930028382	21
6	1105	139.784605946288	22
6	1113	140.989157753717	23
6	1145	144.187754920053	24
6	1197	151.584221429067	25
6	1221	154.424575487261	26
6	1229	155.511507686715	27
6	1345	175.642120217926	28
6	1589	207.360332460247	29
6	1601	209.21826894792	30
6	1665	215.215107763325	31
6	1801	232.637926767345	32
6	1825	235.619935757573	33
6	1833	237.578834655557	34
7	107	12.09086506662	0
7	323	35.958333514474	1
7	455	54.100316824004	2
7	599	69.915763352544	3
7	663	79.83895150031	4
7	807	99.777211124181	5
7	883	109.412402176449	6
7	899	112.26562144311	7
7	955	121.494743424046	8
7	979	126.013983817496	9
7	1107	139.803912681854	10
7	1199	151.599611824152	11
7	1223	154.438766195297	12
7	1231	155.544650435701	13
7	1667	215.240615480109	14
7	1827	235.638616428456	15

