version 2
run General-1-20230921-23:26:41-9324
attr configname General
attr datetime 20230921-23:26:41
attr experiment General
attr inifile omnetpp.ini
attr iterationvars ""
attr iterationvarsf ""
attr measurement ""
attr network Network3
attr processid 9324
attr repetition 1
attr replication #1
attr resultdir results
attr runnumber 1
attr seedset 1
param Network3.node[*].transmissionTime "uniform(1s, 2s)"
param Network3.node[*].delayTime "uniform(0.01s, 0.2s)"
param Network3.node[*].processingTime exponential(0.01s)
param Network3.node[0].lossProbability 0
param Network3.node[1].lossProbability 0.0
param Network3.node[2].lossProbability 0.0
param Network3.node[3].lossProbability "0.0 / 2"
param Network3.node[4].lossProbability "0.0 / 2"
param Network3.node[6].lossProbability "0.0 * 2"
param Network3.node[7].lossProbability "0.0 * 2"
param Network3.node[5].lossProbability "0.0 * 3"

vector 0 Network3.node[0] txVector ETV
vector 1 Network3.node[2] txVector ETV
vector 2 Network3.node[4] txVector ETV
vector 3 Network3.node[7] txVector ETV
vector 4 Network3.node[5] rxVector ETV
vector 5 Network3.node[1] txVector ETV
vector 6 Network3.node[3] txVector ETV
vector 7 Network3.node[6] txVector ETV
0	1	0.089234179703	0
0	9	1.809558668991	1
0	25	3.155119394071	2
0	33	4.353220877356	3
0	45	6.247827541201	4
0	53	7.939704653925	5
0	61	9.928565741402	6
0	69	11.837161245874	7
0	77	13.048789356953	8
0	85	14.63809489424	9
0	93	15.688048353071	10
0	101	17.59145026596	11
0	133	19.518958844596	12
0	141	20.845603746714	13
0	149	21.861424987556	14
0	157	23.794020452423	15
0	169	25.505545209281	16
0	181	27.347576102594	17
0	189	29.154681293879	18
0	197	30.214598988768	19
0	205	31.774315968043	20
0	213	33.026641714739	21
0	221	34.266489478181	22
0	233	35.336511623002	23
0	249	37.0818460536	24
0	257	38.721306935306	25
0	273	40.493484964715	26
0	285	41.979475634759	27
0	293	43.114554790202	28
0	301	44.29075105058	29
0	309	45.872765229903	30
0	321	47.671368818153	31
0	337	49.564257522701	32
0	353	51.538041065336	33
0	361	52.860722066025	34
0	369	54.178106017067	35
0	377	55.604807028902	36
0	393	56.875015294069	37
0	401	57.943224638357	38
0	409	59.818186289753	39
0	417	61.043226243352	40
0	425	62.154117546167	41
0	437	64.005789424415	42
0	453	65.549799544393	43
0	465	67.416407815535	44
0	473	68.450979037332	45
0	481	69.796276499406	46
0	501	70.939282332203	47
0	517	72.801628585095	48
0	525	73.858558019046	49
0	533	75.451990473904	50
0	545	77.411424791096	51
0	553	78.840043621492	52
0	561	80.182497737352	53
0	577	81.260884637367	54
0	601	82.734888564218	55
0	609	84.357384462729	56
0	621	85.758258192222	57
0	629	87.740675636688	58
0	645	89.174267966887	59
0	653	90.627121466566	60
0	673	92.144389064871	61
0	681	93.55797547766	62
0	701	94.906963073071	63
0	721	96.000540171405	64
0	729	97.730631378833	65
0	741	99.050584209505	66
0	749	100.555103378491	67
0	757	102.365092088589	68
0	765	104.009453170821	69
0	773	105.683151589828	70
0	781	107.538979962124	71
0	789	109.346678371663	72
0	809	111.09115152469	73
0	817	112.645036139415	74
0	825	114.123067451065	75
0	833	115.527269355377	76
0	841	116.738001746248	77
0	849	118.469608217135	78
0	857	119.661858237704	79
0	865	121.192555673776	80
0	873	122.454105221556	81
0	881	123.63126638218	82
0	893	125.371343925951	83
0	901	127.231580921572	84
0	909	128.509665967554	85
0	917	130.216622212559	86
0	925	131.618488138897	87
0	937	132.739255326923	88
0	945	134.063393861411	89
0	953	135.738365466596	90
0	973	137.186054468044	91
0	993	138.70391451859	92
0	1001	140.526644528034	93
0	1009	141.660983133019	94
0	1017	143.344448034075	95
0	1041	144.447907593223	96
0	1049	146.423129940294	97
0	1073	148.042716681147	98
0	1085	149.964584985636	99
0	1097	151.744329277547	100
0	1105	152.971626818767	101
0	1117	154.678943419252	102
0	1125	156.107875756575	103
0	1133	157.908207999664	104
0	1141	159.767858952406	105
0	1157	161.716158127302	106
0	1165	162.780898107804	107
0	1177	164.4045685191	108
0	1185	165.744947813807	109
0	1193	167.095604321577	110
0	1205	168.459982391104	111
0	1213	170.01638931188	112
0	1221	171.58756505524	113
0	1229	173.296025928	114
0	1245	174.438247180667	115
0	1253	175.941756693769	116
0	1261	177.085363687837	117
0	1269	178.375661687349	118
0	1277	179.446580090449	119
0	1285	180.767606404965	120
0	1293	181.807335107244	121
0	1301	183.346984217764	122
0	1309	184.675345606758	123
0	1337	186.545537353149	124
0	1345	188.308169451896	125
0	1353	190.002024861174	126
0	1361	191.136817983473	127
0	1369	192.754278998012	128
0	1377	194.410480542695	129
0	1385	195.832138432078	130
0	1393	197.673560588276	131
0	1401	199.287494588299	132
0	1409	201.228322552173	133
0	1417	202.960697457083	134
0	1433	204.803143264614	135
0	1441	206.289894012855	136
0	1453	208.173649522131	137
0	1461	209.775833170749	138
0	1481	210.835010382002	139
0	1493	211.957965157116	140
0	1501	213.261310825944	141
0	1509	214.768430249654	142
0	1521	216.012878250452	143
0	1533	217.494574533664	144
0	1549	219.255376994498	145
0	1557	220.370412005698	146
0	1565	221.861521969437	147
0	1577	223.590919664483	148
0	1593	225.120466271536	149
0	1601	226.78758506163	150
0	1609	228.415824663015	151
0	1621	230.407769669434	152
0	1629	231.821689514099	153
0	1641	233.382638269225	154
0	1649	235.068395166779	155
0	1661	236.651801481964	156
0	1669	238.122299162093	157
0	1685	239.509288390986	158
1	3	0.099235323579	0
1	11	1.824613194316	1
1	47	6.261618435945	2
1	95	15.699527261074	3
1	103	17.605723782659	4
1	151	21.883359212859	5
1	159	23.805347437959	6
1	183	27.362484055784	7
1	191	29.165974905749	8
1	199	30.224725343512	9
1	207	31.797934946251	10
1	275	40.512756219111	11
1	287	41.996520996046	12
1	311	45.886130016229	13
1	323	47.689992934887	14
1	427	62.169493499099	15
1	475	68.476904288625	16
1	483	69.829434057474	17
1	503	70.961080915318	18
1	519	72.81873184891	19
1	535	75.478284885203	20
1	547	77.422579110198	21
1	563	80.192682764992	22
1	631	87.75785603512	23
1	647	89.194164892141	24
1	683	93.568561990142	25
1	703	94.917639136942	26
1	723	96.016863107213	27
1	731	97.782225622637	28
1	743	99.071788157699	29
1	759	102.375144624733	30
1	775	105.695321185583	31
1	791	109.359180907712	32
1	811	111.104783025968	33
1	819	112.656385292673	34
1	827	114.134654495324	35
1	843	116.777062205815	36
1	851	118.484635086613	37
1	867	121.206972737463	38
1	883	123.642890765507	39
1	911	128.534831344491	40
1	927	131.630976394018	41
1	939	132.755368421857	42
1	995	138.733662569589	43
1	1003	140.562934467739	44
1	1051	146.436033905553	45
1	1099	151.759857029449	46
1	1143	159.788217740007	47
1	1167	162.791389932103	48
1	1195	167.120494688236	49
1	1207	168.474704262636	50
1	1231	173.319004871936	51
1	1247	174.482041460915	52
1	1271	178.387317558808	53
1	1355	190.014174338474	54
1	1371	192.781595225541	55
1	1379	194.440418991557	56
1	1387	195.842580991552	57
1	1403	199.309021621724	58
1	1411	201.241245332214	59
1	1443	206.308280144045	60
1	1463	209.799708809646	61
1	1483	210.857786695609	62
1	1511	214.787214113876	63
1	1523	216.028778254788	64
1	1535	217.519763461702	65
1	1551	219.270051577261	66
1	1559	220.381335063231	67
1	1567	221.884428784363	68
1	1631	231.846847329053	69
1	1643	233.397026565784	70
1	1651	235.082094887647	71
1	1663	236.679353983033	72
1	1671	238.139089255554	73
2	5	0.178726466452	0
2	13	1.853341430985	1
2	17	1.890760262736	2
2	21	1.935567623814	3
2	37	4.377298648127	4
2	41	4.427338708787	5
2	49	6.286911517532	6
2	65	9.953314223237	7
2	73	11.86902759246	8
2	81	13.088444902153	9
2	89	14.667279204138	10
2	97	15.731796089934	11
2	105	17.625880377186	12
2	109	17.677796510699	13
2	113	17.706496230982	14
2	117	17.732201366358	15
2	121	17.777384283863	16
2	125	17.831806106098	17
2	129	17.869277781031	18
2	137	19.558792453505	19
2	145	20.900130836903	20
2	153	21.895977573353	21
2	161	23.820394437007	22
2	165	23.841758943579	23
2	173	25.527831305041	24
2	177	25.587349211178	25
2	185	27.386422200219	26
2	193	29.200793204409	27
2	201	30.238211836893	28
2	209	31.835856609103	29
2	217	33.093488889022	30
2	229	34.332506263885	31
2	241	35.394387038798	32
2	245	35.432768584844	33
2	265	38.813554075269	34
2	269	38.865822094996	35
2	277	40.528771048349	36
2	281	40.583267026858	37
2	289	42.012674440257	38
2	297	43.160278813051	39
2	313	45.926096004148	40
2	317	45.948716591169	41
2	325	47.702115716207	42
2	329	47.731744022311	43
2	333	47.771710869465	44
2	345	49.637816365302	45
2	349	49.672051692974	46
2	365	52.892285738901	47
2	373	54.202636780714	48
2	381	55.635496397856	49
2	385	55.67257185703	50
2	389	55.700086056858	51
2	405	57.976960312527	52
2	429	62.188784808155	53
2	433	62.225484575743	54
2	441	64.080689089958	55
2	445	64.126132695378	56
2	449	64.151349811497	57
2	457	65.609529409024	58
2	461	65.643419616068	59
2	469	67.454737269767	60
2	477	68.49645629182	61
2	485	69.844733367346	62
2	489	69.924229709806	63
2	493	69.957831856184	64
2	497	69.986707979695	65
2	505	70.977766912277	66
2	509	71.00674464158	67
2	513	71.03157898668	68
2	521	72.841640967877	69
2	529	73.904118371011	70
2	537	75.496590804441	71
2	541	75.52371061945	72
2	549	77.433048050774	73
2	565	80.211452498599	74
2	569	80.264524361681	75
2	573	80.307637029258	76
2	585	81.33301614784	77
2	589	81.372038645788	78
2	593	81.407039549424	79
2	597	81.455511813477	80
2	605	82.798259389572	81
2	613	84.386986849946	82
2	617	84.442557453784	83
2	625	85.78832361023	84
2	633	87.786338466763	85
2	637	87.829457016405	86
2	641	87.878636172243	87
2	649	89.208221132312	88
2	657	90.673705914817	89
2	661	90.720106305421	90
2	665	90.768948161536	91
2	669	90.794270573924	92
2	685	93.579092214183	93
2	689	93.607929636413	94
2	693	93.637525122532	95
2	697	93.670175411748	96
2	705	94.948813146208	97
2	709	95.036900684891	98
2	713	95.073303815074	99
2	717	95.108335313303	100
2	725	96.036370743061	101
2	733	97.798441706436	102
2	737	97.828783472179	103
2	745	99.086181090719	104
2	761	102.389231998645	105
2	769	104.043587586728	106
2	777	105.708196268639	107
2	793	109.376974334687	108
2	797	109.411752336272	109
2	801	109.443717969863	110
2	805	109.4761333218	111
2	813	111.121413935933	112
2	821	112.681206054216	113
2	829	114.148871434021	114
2	837	115.58870197281	115
2	845	116.813021862066	116
2	853	118.496866084675	117
2	869	121.239351610068	118
2	885	123.658856699552	119
2	889	123.710011495109	120
2	913	128.550336950812	121
2	929	131.665054018377	122
2	933	131.695136168742	123
2	941	132.766090934257	124
2	957	135.774801769629	125
2	961	135.79762215684	126
2	965	135.870429541748	127
2	969	135.903904779222	128
2	981	137.282994036717	129
2	985	137.314770586721	130
2	989	137.380828693082	131
2	997	138.752516905339	132
2	1005	140.576907463029	133
2	1021	143.378344612131	134
2	1025	143.406798203726	135
2	1029	143.443145393187	136
2	1033	143.478904750855	137
2	1037	143.533750696711	138
2	1045	144.47713211852	139
2	1053	146.459125664699	140
2	1057	146.483866658761	141
2	1061	146.515957452549	142
2	1065	146.544564985789	143
2	1069	146.613544943032	144
2	1081	148.118998726194	145
2	1089	150.001275189961	146
2	1093	150.039435609248	147
2	1101	151.771638451251	148
2	1113	153.026030665546	149
2	1121	154.716672708519	150
2	1137	157.952116670268	151
2	1145	159.804585493858	152
2	1149	159.85844940672	153
2	1153	159.891232885764	154
2	1169	162.811698369589	155
2	1173	162.844705664676	156
2	1181	164.44832185591	157
2	1197	167.155871082829	158
2	1201	167.185985810559	159
2	1209	168.513795982244	160
2	1217	170.042388322011	161
2	1225	171.62904496318	162
2	1233	173.333086787599	163
2	1237	173.395189557518	164
2	1241	173.432150206195	165
2	1249	174.494591439946	166
2	1257	175.964680075803	167
2	1265	177.11272034986	168
2	1273	178.401511537615	169
2	1317	184.734606690385	170
2	1321	184.789097422504	171
2	1325	184.824429302551	172
2	1329	184.886654692763	173
2	1333	184.910926710654	174
2	1357	190.038620484514	175
2	1365	191.182988353392	176
2	1373	192.79247948388	177
2	1381	194.457559180929	178
2	1389	195.856965450689	179
2	1397	197.73015233609	180
2	1405	199.326055537527	181
2	1413	201.254338380171	182
2	1421	203.008461462606	183
2	1425	203.035705428123	184
2	1429	203.057196871934	185
2	1445	206.328621563952	186
2	1449	206.380269827662	187
2	1457	208.236591846297	188
2	1465	209.816939991787	189
2	1469	209.849894265997	190
2	1473	209.875847910127	191
2	1477	209.915698990579	192
2	1485	210.875250224484	193
2	1489	210.906832283632	194
2	1497	211.983945421991	195
2	1505	213.314113080135	196
2	1513	214.798652593222	197
2	1517	214.860142234112	198
2	1525	216.042282260022	199
2	1529	216.081699103743	200
2	1537	217.540186732996	201
2	1541	217.575083737653	202
2	1545	217.615879259063	203
2	1553	219.307081945725	204
2	1561	220.394896488912	205
2	1569	221.902339031359	206
2	1573	221.94322260998	207
2	1581	223.640142829877	208
2	1585	223.699995681604	209
2	1589	223.749604778665	210
2	1617	228.48656144043	211
2	1625	230.50426469262	212
2	1633	231.865316690561	213
2	1637	231.898479423784	214
2	1645	233.414058310441	215
2	1653	235.092952630095	216
2	1657	235.126742020232	217
2	1665	236.696269528212	218
2	1673	238.149182421102	219
2	1677	238.176242930226	220
2	1681	238.200312591483	221
2	1689	239.555479557969	222
3	7	0.189695305177	0
3	15	1.874900228091	1
3	19	1.901037959012	2
3	23	1.953747696928	3
3	31	3.229271319601	4
3	39	4.408347677973	5
3	43	4.469013298012	6
3	51	6.297096093312	7
3	59	7.990492339694	8
3	67	9.963509792788	9
3	75	11.88756351289	10
3	83	13.11029968954	11
3	91	14.706210014927	12
3	99	15.746865701504	13
3	107	17.657362386569	14
3	111	17.69208740557	15
3	115	17.722083988221	16
3	119	17.751921930691	17
3	123	17.793361056419	18
3	127	17.844511432132	19
3	131	17.879306525551	20
3	139	19.592710458343	21
3	147	20.912022371442	22
3	155	21.919996779253	23
3	163	23.83068158543	24
3	167	23.859498852101	25
3	175	25.572763032394	26
3	179	25.613475274097	27
3	187	27.404546919599	28
3	195	29.213351283854	29
3	203	30.256607459596	30
3	211	31.880928853435	31
3	219	33.105194297978	32
3	227	34.321348382899	33
3	231	34.347288899183	34
3	239	35.3836154371	35
3	243	35.418360816692	36
3	247	35.459103563576	37
3	263	38.789434449774	38
3	267	38.853546683961	39
3	271	38.886082208126	40
3	279	40.563871254449	41
3	283	40.595178095192	42
3	291	42.040225753847	43
3	299	43.174505993755	44
3	315	45.936252555939	45
3	319	45.975185939579	46
3	327	47.721584019264	47
3	331	47.753109308564	48
3	335	47.819329304556	49
3	343	49.615780502169	50
3	347	49.661680179514	51
3	351	49.694026871431	52
3	367	52.913611594557	53
3	375	54.236054401658	54
3	383	55.661699419207	55
3	387	55.689890978885	56
3	391	55.716354219696	57
3	407	57.993250400336	58
3	431	62.199860295668	59
3	435	62.237141245707	60
3	443	64.093200009138	61
3	447	64.136358530631	62
3	451	64.179974395768	63
3	459	65.620569061728	64
3	463	65.662841878158	65
3	471	67.467708794835	66
3	479	68.552991266442	67
3	487	69.864855999729	68
3	491	69.941704179288	69
3	495	69.968097540209	70
3	499	69.997016693162	71
3	507	70.993599160146	72
3	511	71.019025024515	73
3	515	71.055448829133	74
3	523	72.855169666724	75
3	531	73.921275192456	76
3	539	75.512845717468	77
3	543	75.536817697748	78
3	551	77.454981693376	79
3	567	80.222655457156	80
3	571	80.279547158762	81
3	575	80.323616976575	82
3	583	81.32263468436	83
3	587	81.352652947792	84
3	591	81.382068871035	85
3	595	81.432934281807	86
3	599	81.467228360765	87
3	607	82.821419628104	88
3	615	84.41373251374	89
3	619	84.46965496423	90
3	627	85.822489307778	91
3	635	87.808957263971	92
3	639	87.84683953412	93
3	643	87.896812319637	94
3	651	89.226819195163	95
3	659	90.688346826477	96
3	663	90.748706471264	97
3	667	90.779863638537	98
3	671	90.806191455387	99
3	679	92.199872986491	100
3	687	93.595968838456	101
3	691	93.626385998592	102
3	695	93.656548325999	103
3	699	93.689229115827	104
3	707	94.99584294273	105
3	711	95.061488254817	106
3	715	95.094352113975	107
3	719	95.122689497182	108
3	727	96.046480227573	109
3	735	97.815862898892	110
3	739	97.840116758263	111
3	747	99.096412908297	112
3	763	102.416975098768	113
3	771	104.064726768497	114
3	779	105.733059594268	115
3	787	107.595587095978	116
3	795	109.388511889522	117
3	799	109.422928021001	118
3	803	109.454557543356	119
3	807	109.511062737498	120
3	815	111.157112859979	121
3	823	112.693470069262	122
3	831	114.169196748551	123
3	839	115.607793319334	124
3	847	116.823599647374	125
3	855	118.530366101881	126
3	871	121.250478638274	127
3	887	123.683094421047	128
3	891	123.739814087942	129
3	915	128.574224898448	130
3	931	131.68288837972	131
3	935	131.708563106697	132
3	943	132.781648260283	133
3	951	134.129284716224	134
3	959	135.786215573419	135
3	963	135.816922985913	136
3	967	135.88732220147	137
3	971	135.922420870263	138
3	979	137.243578692737	139
3	983	137.30278465697	140
3	987	137.370183210446	141
3	991	137.420044665884	142
3	999	138.778746672898	143
3	1007	140.606335786608	144
3	1023	143.396657178387	145
3	1027	143.432491775526	146
3	1031	143.45836228528	147
3	1035	143.492788175738	148
3	1039	143.546513750331	149
3	1047	144.49183361125	150
3	1055	146.473549723091	151
3	1059	146.496995291875	152
3	1063	146.533812739496	153
3	1067	146.576492112327	154
3	1071	146.646392890615	155
3	1079	148.10604550468	156
3	1083	148.156882963126	157
3	1091	150.023890178624	158
3	1095	150.052357813284	159
3	1103	151.782232287528	160
3	1111	153.014564845297	161
3	1115	153.038063504169	162
3	1123	154.729709202653	163
3	1139	157.968476551244	164
3	1147	159.822924818868	165
3	1151	159.877594074737	166
3	1155	159.909892677788	167
3	1171	162.833856102371	168
3	1175	162.856790606752	169
3	1183	164.458610901835	170
3	1199	167.170255401515	171
3	1203	167.196430913672	172
3	1211	168.531067290886	173
3	1219	170.073174944606	174
3	1227	171.640679385005	175
3	1235	173.364802177704	176
3	1239	173.408321498747	177
3	1243	173.44241111529	178
3	1251	174.511521559274	179
3	1259	175.976807995697	180
3	1267	177.127518166399	181
3	1275	178.422061012077	182
3	1283	179.499191587152	183
3	1315	184.719947124115	184
3	1319	184.774793756024	185
3	1323	184.806601940156	186
3	1327	184.871082285498	187
3	1331	184.900599457869	188
3	1335	184.942983775931	189
3	1343	186.596678219956	190
3	1359	190.057912136545	191
3	1367	191.193143587284	192
3	1375	192.805159217728	193
3	1383	194.468900703707	194
3	1391	195.897430188117	195
3	1399	197.745854465525	196
3	1407	199.348141381434	197
3	1415	201.264894708854	198
3	1423	203.021958151885	199
3	1427	203.046371423934	200
3	1431	203.084696956881	201
3	1447	206.347684531867	202
3	1451	206.392035382366	203
3	1459	208.255729417939	204
3	1467	209.829078807818	205
3	1471	209.863873047223	206
3	1475	209.905171256669	207
3	1479	209.946858678959	208
3	1487	210.894161905188	209
3	1491	210.93235819077	210
3	1499	211.997417991712	211
3	1507	213.32775566349	212
3	1515	214.844085959528	213
3	1519	214.884071010052	214
3	1527	216.064466811864	215
3	1531	216.101338189152	216
3	1539	217.552130822829	217
3	1543	217.601983545391	218
3	1547	217.631459568834	219
3	1555	219.326235757435	220
3	1563	220.407110333677	221
3	1571	221.917932932837	222
3	1575	221.961922304517	223
3	1583	223.674083834449	224
3	1587	223.732943929262	225
3	1591	223.76172235684	226
3	1615	228.471266727554	227
3	1619	228.497878700453	228
3	1627	230.519288014963	229
3	1635	231.878354801156	230
3	1639	231.925689930728	231
3	1647	233.426135564324	232
3	1655	235.104523890214	233
3	1659	235.157385136078	234
3	1667	236.709493686635	235
3	1675	238.164015554575	236
3	1679	238.188360886382	237
3	1683	238.223943680493	238
3	1691	239.56617830495	239
4	8	0.199695305177	0
4	24	1.963747696928	1
4	32	3.239271319601	2
4	44	4.479013298012	3
4	52	6.307096093312	4
4	60	8.000492339694	5
4	68	9.973509792788	6
4	76	11.89756351289	7
4	84	13.12029968954	8
4	92	14.716210014927	9
4	100	15.756865701504	10
4	132	17.889306525551	11
4	140	19.602710458343	12
4	148	20.922022371442	13
4	156	21.929996779253	14
4	168	23.869498852101	15
4	180	25.623475274097	16
4	188	27.414546919599	17
4	196	29.223351283854	18
4	204	30.266607459596	19
4	212	31.890928853435	20
4	220	33.115194297978	21
4	232	34.357288899183	22
4	248	35.469103563576	23
4	256	37.139728743967	24
4	272	38.896082208126	25
4	284	40.605178095192	26
4	292	42.050225753847	27
4	300	43.184505993755	28
4	308	44.358258206106	29
4	320	45.985185939579	30
4	336	47.829329304556	31
4	352	49.704026871431	32
4	360	51.598901711054	33
4	368	52.923611594557	34
4	376	54.246054401658	35
4	392	55.726354219696	36
4	400	56.924487280246	37
4	408	58.003250400336	38
4	416	59.892702626004	39
4	424	61.091758407578	40
4	436	62.247141245707	41
4	452	64.189974395768	42
4	464	65.672841878158	43
4	472	67.477708794835	44
4	480	68.562991266442	45
4	500	70.007016693162	46
4	516	71.065448829133	47
4	524	72.865169666724	48
4	532	73.931275192456	49
4	544	75.546817697748	50
4	552	77.464981693376	51
4	560	78.925615047094	52
4	576	80.333616976575	53
4	600	81.477228360765	54
4	608	82.831419628104	55
4	620	84.47965496423	56
4	628	85.832489307778	57
4	644	87.906812319637	58
4	652	89.236819195163	59
4	672	90.816191455387	60
4	680	92.209872986491	61
4	700	93.699229115827	62
4	720	95.132689497182	63
4	728	96.056480227573	64
4	740	97.850116758263	65
4	748	99.106412908297	66
4	756	100.6131661019	67
4	764	102.426975098768	68
4	772	104.074726768497	69
4	780	105.743059594268	70
4	788	107.605587095978	71
4	808	109.521062737498	72
4	816	111.167112859979	73
4	824	112.703470069262	74
4	832	114.179196748551	75
4	840	115.617793319334	76
4	848	116.833599647374	77
4	856	118.540366101881	78
4	864	119.711714983151	79
4	872	121.260478638274	80
4	880	122.529954050822	81
4	892	123.749814087942	82
4	900	125.442622946385	83
4	908	127.287698402816	84
4	916	128.584224898448	85
4	924	130.303450268765	86
4	936	131.718563106697	87
4	944	132.791648260283	88
4	952	134.139284716224	89
4	972	135.932420870263	90
4	992	137.430044665884	91
4	1000	138.788746672898	92
4	1008	140.616335786608	93
4	1016	141.7472658525	94
4	1040	143.556513750331	95
4	1048	144.50183361125	96
4	1072	146.656392890615	97
4	1084	148.166882963126	98
4	1096	150.062357813284	99
4	1104	151.792232287528	100
4	1116	153.048063504169	101
4	1124	154.739709202653	102
4	1132	156.160643865753	103
4	1140	157.978476551244	104
4	1156	159.919892677788	105
4	1164	161.810353347331	106
4	1176	162.866790606752	107
4	1184	164.468610901835	108
4	1192	165.829688561598	109
4	1204	167.206430913672	110
4	1212	168.541067290886	111
4	1220	170.083174944606	112
4	1228	171.650679385005	113
4	1244	173.45241111529	114
4	1252	174.521521559274	115
4	1260	175.986807995697	116
4	1268	177.137518166399	117
4	1276	178.432061012077	118
4	1284	179.509191587152	119
4	1292	180.839587398504	120
4	1300	181.873827761106	121
4	1308	183.40329902066	122
4	1336	184.952983775931	123
4	1344	186.606678219956	124
4	1352	188.377390804999	125
4	1360	190.067912136545	126
4	1368	191.203143587284	127
4	1376	192.815159217728	128
4	1384	194.478900703707	129
4	1392	195.907430188117	130
4	1400	197.755854465525	131
4	1408	199.358141381434	132
4	1416	201.274894708854	133
4	1432	203.094696956881	134
4	1440	204.872176455239	135
4	1452	206.402035382366	136
4	1460	208.265729417939	137
4	1480	209.956858678959	138
4	1492	210.94235819077	139
4	1500	212.007417991712	140
4	1508	213.33775566349	141
4	1520	214.894071010052	142
4	1532	216.111338189152	143
4	1548	217.641459568834	144
4	1556	219.336235757435	145
4	1564	220.417110333677	146
4	1576	221.971922304517	147
4	1592	223.77172235684	148
4	1600	225.184336657341	149
4	1608	226.881146595581	150
4	1620	228.507878700453	151
4	1628	230.529288014963	152
4	1640	231.935689930728	153
4	1648	233.436135564324	154
4	1660	235.167385136078	155
4	1668	236.719493686635	156
4	1684	238.233943680493	157
4	1692	239.57617830495	158
5	27	3.181251070984	0
5	35	4.364109672642	1
5	55	7.963494491536	2
5	63	9.942041677917	3
5	71	11.850247533957	4
5	79	13.070821033624	5
5	87	14.655771369184	6
5	135	19.536446672031	7
5	143	20.88211627343	8
5	171	25.516871079863	9
5	215	33.043449350749	10
5	223	34.283151514706	11
5	235	35.357575030565	12
5	251	37.099283519843	13
5	259	38.755146606948	14
5	295	43.128590412989	15
5	303	44.321856822388	16
5	339	49.5835390331	17
5	355	51.559151622952	18
5	363	52.880448543981	19
5	371	54.192312001069	20
5	379	55.617715455564	21
5	395	56.889762226981	22
5	403	57.964885413174	23
5	411	59.837163724354	24
5	419	61.055370097677	25
5	439	64.026406559819	26
5	455	65.589718140326	27
5	467	67.441114960156	28
5	527	73.887126788251	29
5	555	78.868742009068	30
5	579	81.287138447411	31
5	603	82.76851292354	32
5	611	84.370259292692	33
5	623	85.771359360173	34
5	655	90.661939284062	35
5	675	92.171336382205	36
5	751	100.565230217143	37
5	767	104.028092515911	38
5	783	107.553342322292	39
5	835	115.546456147423	40
5	859	119.67867272178	41
5	875	122.472601012105	42
5	895	125.389528848963	43
5	903	127.241618930462	44
5	919	130.238572608286	45
5	947	134.075897493772	46
5	955	135.763711434572	47
5	975	137.198216964365	48
5	1011	141.676057955833	49
5	1019	143.356006568396	50
5	1043	144.461768915165	51
5	1075	148.055987716253	52
5	1087	149.976505508859	53
5	1107	152.991135347898	54
5	1119	154.695820821212	55
5	1127	156.123438156824	56
5	1135	157.929343179262	57
5	1159	161.773656055313	58
5	1179	164.43043067384	59
5	1187	165.757551142528	60
5	1215	170.028379536467	61
5	1223	171.612591932619	62
5	1255	175.952625381825	63
5	1263	177.097808527846	64
5	1279	179.464742553539	65
5	1287	180.778335697901	66
5	1295	181.839897884214	67
5	1303	183.364915313395	68
5	1311	184.688048858605	69
5	1339	186.561876310986	70
5	1347	188.329266690905	71
5	1363	191.152480584517	72
5	1395	197.719861937157	73
5	1419	202.980329861959	74
5	1435	204.822267862666	75
5	1455	208.216772349344	76
5	1495	211.968181234411	77
5	1503	213.277374875188	78
5	1579	223.623403704143	79
5	1595	225.134687388396	80
5	1603	226.828889478699	81
5	1611	228.430608836234	82
5	1623	230.464781665362	83
5	1687	239.529050049633	84
6	29	3.207484284576	0
6	57	7.979402825563	1
6	225	34.307530471215	2
6	237	35.368993745884	3
6	253	37.119046372159	4
6	261	38.776763990589	5
6	305	44.332098561812	6
6	341	49.595889839265	7
6	357	51.573611622423	8
6	397	56.902483082512	9
6	413	59.848663585234	10
6	421	61.069424013366	11
6	557	78.895766777193	12
6	581	81.312257031781	13
6	677	92.187123937748	14
6	753	100.58720141791	15
6	785	107.581896121767	16
6	861	119.690922507471	17
6	877	122.507851704185	18
6	897	125.410002370972	19
6	905	127.25464753953	20
6	921	130.260776486437	21
6	949	134.109426818147	22
6	977	137.221514734061	23
6	1013	141.693744945166	24
6	1077	148.09345513207	25
6	1109	153.002946162182	26
6	1129	156.133518255647	27
6	1161	161.784858502911	28
6	1189	165.803343758537	29
6	1281	179.477164411852	30
6	1289	180.791901102379	31
6	1297	181.85090306935	32
6	1305	183.381758258943	33
6	1313	184.702485821637	34
6	1341	186.582794664831	35
6	1349	188.34971191456	36
6	1437	204.832863362188	37
6	1597	225.145511844427	38
6	1605	226.85553714117	39
6	1613	228.459375927632	40
7	255	37.129728743967	0
7	307	44.348258206106	1
7	359	51.588901711054	2
7	399	56.914487280246	3
7	415	59.882702626004	4
7	423	61.081758407578	5
7	559	78.915615047094	6
7	755	100.6031661019	7
7	863	119.701714983151	8
7	879	122.519954050822	9
7	899	125.432622946385	10
7	907	127.277698402816	11
7	923	130.293450268765	12
7	1015	141.7372658525	13
7	1131	156.150643865753	14
7	1163	161.800353347331	15
7	1191	165.819688561598	16
7	1291	180.829587398504	17
7	1299	181.863827761106	18
7	1307	183.39329902066	19
7	1351	188.367390804999	20
7	1439	204.862176455239	21
7	1599	225.174336657341	22
7	1607	226.871146595581	23

