version 2
run General-2-20230921-23:26:41-9324
attr configname General
attr datetime 20230921-23:26:41
attr experiment General
attr inifile omnetpp.ini
attr iterationvars ""
attr iterationvarsf ""
attr measurement ""
attr network Network3
attr processid 9324
attr repetition 2
attr replication #2
attr resultdir results
attr runnumber 2
attr seedset 2
param Network3.node[*].transmissionTime "uniform(1s, 2s)"
param Network3.node[*].delayTime "uniform(0.01s, 0.2s)"
param Network3.node[*].processingTime exponential(0.01s)
param Network3.node[0].lossProbability 0
param Network3.node[1].lossProbability 0.0
param Network3.node[2].lossProbability 0.0
param Network3.node[3].lossProbability "0.0 / 2"
param Network3.node[4].lossProbability "0.0 / 2"
param Network3.node[6].lossProbability "0.0 * 2"
param Network3.node[7].lossProbability "0.0 * 2"
param Network3.node[5].lossProbability "0.0 * 3"

vector 0 Network3.node[0] txVector ETV
vector 1 Network3.node[2] txVector ETV
vector 2 Network3.node[4] txVector ETV
vector 3 Network3.node[7] txVector ETV
vector 4 Network3.node[5] rxVector ETV
vector 5 Network3.node[1] txVector ETV
vector 6 Network3.node[3] txVector ETV
vector 7 Network3.node[6] txVector ETV
0	1	0.092839031499	0
0	9	1.118765259413	1
0	17	2.738036229759	2
0	25	4.251614347584	3
0	41	5.331259818533	4
0	49	6.533003045497	5
0	57	8.113007228374	6
0	65	9.45462088475	7
0	73	11.408363107145	8
0	81	12.435565473298	9
0	89	14.037382591768	10
0	101	15.083061556817	11
0	113	16.462272123453	12
0	125	17.877177956766	13
0	137	19.091813704717	14
0	145	20.840591582955	15
0	153	22.186829495496	16
0	165	24.013079322195	17
0	177	25.123662468065	18
0	193	26.409266200401	19
0	201	28.06228670992	20
0	217	29.092876187778	21
0	225	30.383302933556	22
0	233	31.82787719627	23
0	249	33.535848370773	24
0	261	35.25159545757	25
0	273	37.177497054703	26
0	281	38.740873164284	27
0	301	40.556892318671	28
0	325	41.991975968025	29
0	333	43.251456371994	30
0	341	44.37149616426	31
0	353	45.547220353756	32
0	365	47.26054191638	33
0	381	48.869472071782	34
0	393	49.942970456576	35
0	405	51.203690474408	36
0	417	53.146111087196	37
0	429	54.814210421659	38
0	441	56.757381144699	39
0	449	57.820282680469	40
0	457	59.284495025661	41
0	465	60.401600056814	42
0	473	62.012689356713	43
0	481	63.966977992349	44
0	489	65.472039915177	45
0	501	67.25783777565	46
0	513	68.320643216393	47
0	525	69.482826660642	48
0	549	70.731560948792	49
0	557	72.479745976881	50
0	573	73.866717197721	51
0	581	75.430143233643	52
0	597	77.391533424401	53
0	609	78.729253046469	54
0	617	80.164345472607	55
0	625	82.043632427485	56
0	641	83.360915782417	57
0	653	85.123346342959	58
0	661	86.894324312706	59
0	669	87.945381461896	60
0	681	89.241586416049	61
0	697	91.085678505033	62
0	725	92.778851763598	63
0	737	94.594122078988	64
0	749	95.681377697756	65
0	765	96.984963496934	66
0	773	98.983243025859	67
0	789	99.988815340233	68
0	809	101.804794888497	69
0	821	103.70064873972	70
0	829	105.447120347312	71
0	841	106.500196584985	72
0	849	107.552826154763	73
0	857	109.37963476779	74
0	869	111.17834739063	75
0	885	112.62099090593	76
0	897	113.890603109049	77
0	913	115.424617694011	78
0	921	116.855355650205	79
0	929	118.687139229402	80
0	949	120.291486165039	81
0	965	122.200795631874	82
0	977	123.960714227538	83
0	985	125.59515217158	84
0	993	127.008987225611	85
0	1009	128.477539896751	86
0	1021	129.979015686335	87
0	1033	131.158721399046	88
0	1041	132.854448351562	89
0	1049	134.725947255054	90
0	1061	135.845827906876	91
0	1069	137.562623312947	92
0	1077	138.841723392735	93
0	1097	140.261492353649	94
0	1105	141.281031095208	95
0	1117	142.495177994267	96
0	1125	144.215825314651	97
0	1133	145.848136240401	98
0	1145	147.393675718241	99
0	1153	149.015860964096	100
0	1161	150.74695634541	101
0	1169	152.088329433015	102
0	1177	153.156307593471	103
0	1185	154.824571097054	104
0	1201	155.864882438228	105
0	1209	157.789818498789	106
0	1229	159.318025026721	107
0	1241	161.290058503876	108
0	1249	163.092830762983	109
0	1261	165.008405889868	110
0	1277	166.092776010995	111
0	1289	167.489296475443	112
0	1301	169.477868836391	113
0	1309	170.974419716065	114
0	1317	172.1544996435	115
0	1325	173.690715182125	116
0	1333	175.024386951951	117
0	1345	176.646229548864	118
0	1353	178.006752248406	119
0	1361	179.402325740335	120
0	1369	180.78333122774	121
0	1377	182.2779042246	122
0	1397	183.572726672999	123
0	1405	185.243423843076	124
0	1413	186.8036155638	125
0	1421	188.254922050302	126
0	1441	189.73150056905	127
0	1457	191.326706395269	128
0	1469	193.017762029095	129
0	1485	194.721056186611	130
0	1493	196.062473109475	131
0	1509	198.035266925598	132
0	1533	199.378422465193	133
0	1541	201.234483959869	134
0	1549	202.525650948303	135
0	1561	203.636582089372	136
0	1573	204.715093620371	137
0	1585	205.972330253122	138
0	1593	207.317275589348	139
0	1605	208.39173875611	140
0	1617	209.706456835165	141
0	1629	211.381446014407	142
0	1657	212.481663595901	143
0	1665	214.452529222255	144
0	1673	216.196196067629	145
0	1681	217.25597600268	146
0	1693	218.371804915385	147
0	1701	219.432352086778	148
0	1709	221.195431351678	149
0	1717	222.950305465625	150
0	1745	224.201364772643	151
0	1753	226.179106066019	152
0	1761	227.36119160663	153
0	1769	228.916026338019	154
0	1777	230.339278024637	155
0	1785	231.466464773535	156
0	1793	232.702236604194	157
0	1801	234.585933116979	158
0	1817	235.723935701667	159
0	1825	237.197804871962	160
0	1837	238.208785306911	161
0	1849	239.605021047655	162
1	3	0.110816610738	0
1	11	1.132327076887	1
1	27	4.268651295476	2
1	67	9.4724780753	3
1	83	12.460045463131	4
1	91	14.088218680882	5
1	103	15.093192584878	6
1	127	17.892569409374	7
1	147	20.853653825857	8
1	167	24.026282191082	9
1	179	25.140037887336	10
1	195	26.435305009924	11
1	219	29.112427921633	12
1	227	30.400387927459	13
1	235	31.852909429928	14
1	283	38.75228182779	15
1	303	40.56938823633	16
1	327	42.013765493825	17
1	343	44.382321703064	18
1	407	51.21833102673	19
1	419	53.163102876056	20
1	431	54.83234912081	21
1	467	60.419005995178	22
1	491	65.487635527965	23
1	515	68.342492735734	24
1	583	75.448284382897	25
1	599	77.412399329015	26
1	611	78.743893025041	27
1	655	85.134279017809	28
1	683	89.25378067395	29
1	699	91.106113199235	30
1	739	94.622212298822	31
1	751	95.694630195163	32
1	767	96.997685179402	33
1	775	99.006929663146	34
1	823	103.719293973154	35
1	831	105.458320029208	36
1	851	107.568665227769	37
1	887	112.637523704203	38
1	899	113.903972704587	39
1	915	115.437408892149	40
1	923	116.868727458085	41
1	931	118.69833309659	42
1	967	122.231199823329	43
1	979	123.974427400065	44
1	995	127.035162015988	45
1	1011	128.492013809776	46
1	1023	130.02933765064	47
1	1035	131.173314897006	48
1	1051	134.738938493796	49
1	1099	140.284186061819	50
1	1119	142.508512415805	51
1	1127	144.225930992949	52
1	1155	149.027582373552	53
1	1163	150.758557905573	54
1	1179	153.167389795497	55
1	1251	163.10966117144	56
1	1263	165.042979251515	57
1	1279	166.105714709503	58
1	1319	172.169080650362	59
1	1327	173.709840776016	60
1	1347	176.658357893087	61
1	1363	179.42382926761	62
1	1371	180.802353059989	63
1	1379	182.29971117115	64
1	1415	186.819234196806	65
1	1443	189.743419001136	66
1	1459	191.351204962736	67
1	1471	193.031834010253	68
1	1495	196.096761218716	69
1	1551	202.543060155556	70
1	1563	203.670957651323	71
1	1575	204.730758801433	72
1	1619	209.749222546127	73
1	1667	214.475214038948	74
1	1683	217.30290765951	75
1	1695	218.387843716571	76
1	1711	221.221312292414	77
1	1747	224.229148025354	78
1	1763	227.372086227301	79
1	1779	230.352749172965	80
1	1787	231.478714522162	81
1	1795	232.715212025328	82
1	1819	235.746889749119	83
1	1851	239.617808325674	84
2	5	0.127447623789	0
2	13	1.152343867444	1
2	29	4.282046226904	2
2	33	4.309879275217	3
2	37	4.347029535392	4
2	61	8.157944732969	5
2	69	9.512060595149	6
2	85	12.502312963066	7
2	93	14.105504989565	8
2	97	14.137938599431	9
2	105	15.105587006962	10
2	109	15.138841117344	11
2	121	16.550578648476	12
2	129	17.911546463591	13
2	133	17.967926921986	14
2	149	20.890124303642	15
2	157	22.234790680986	16
2	161	22.266572341845	17
2	169	24.036283427	18
2	173	24.067014606646	19
2	181	25.170417706947	20
2	185	25.242120527625	21
2	189	25.274904964677	22
2	197	26.462059822997	23
2	205	28.110857472047	24
2	209	28.135972073706	25
2	213	28.167319537229	26
2	221	29.128146439537	27
2	229	30.414298864233	28
2	237	31.86301802669	29
2	241	31.925820246242	30
2	245	31.961285587036	31
2	257	33.61303293408	32
2	269	35.346281978105	33
2	285	38.762992483546	34
2	289	38.822930078443	35
2	293	38.852121438855	36
2	297	38.879688330153	37
2	305	40.608843066446	38
2	309	40.641738644776	39
2	313	40.665965174038	40
2	317	40.713709943984	41
2	321	40.758573391549	42
2	329	42.034013070105	43
2	337	43.302646613176	44
2	345	44.394636217115	45
2	349	44.443986494316	46
2	357	45.590250892405	47
2	361	45.618530086159	48
2	369	47.307346246903	49
2	373	47.415480288049	50
2	377	47.449131678816	51
2	385	48.899787121857	52
2	389	48.944848874186	53
2	397	49.969665893107	54
2	401	50.014417440388	55
2	409	51.23234561174	56
2	413	51.26056714073	57
2	421	53.179401533259	58
2	425	53.232238378964	59
2	433	54.862395827048	60
2	437	54.899141700848	61
2	469	60.439546988908	62
2	493	65.500270985051	63
2	497	65.533721590962	64
2	505	67.290200265912	65
2	509	67.315008514837	66
2	517	68.356052648491	67
2	521	68.402509645283	68
2	533	69.538775087086	69
2	537	69.573177876918	70
2	541	69.620126085684	71
2	545	69.660507404654	72
2	553	70.757348438786	73
2	561	72.521462322374	74
2	565	72.551288972147	75
2	569	72.582579278519	76
2	585	75.467864453514	77
2	589	75.500513305007	78
2	593	75.551414156817	79
2	601	77.443538383781	80
2	605	77.476670985746	81
2	613	78.763119755455	82
2	621	80.215211031321	83
2	633	82.123258123937	84
2	637	82.178342038359	85
2	645	83.396809167944	86
2	649	83.434553331124	87
2	657	85.14731057901	88
2	677	88.031137508963	89
2	685	89.26871647501	90
2	689	89.320102901537	91
2	693	89.344182425944	92
2	701	91.117833410476	93
2	705	91.143243980894	94
2	709	91.173533564776	95
2	713	91.203460646998	96
2	717	91.227333833994	97
2	721	91.284577153364	98
2	733	92.841457461615	99
2	741	94.638046316946	100
2	745	94.670988595056	101
2	753	95.706359985821	102
2	757	95.730996318499	103
2	761	95.763780255132	104
2	769	97.013891289595	105
2	777	99.023480165766	106
2	781	99.098176074174	107
2	785	99.132160548181	108
2	793	100.091121571243	109
2	797	100.129865339099	110
2	801	100.154878128646	111
2	805	100.193785498269	112
2	813	101.841385547007	113
2	817	101.882388375743	114
2	825	103.730145252595	115
2	833	105.475326910285	116
2	837	105.541859586159	117
2	853	107.602073642419	118
2	861	109.416053747857	119
2	865	109.44512168554	120
2	873	111.213450595654	121
2	877	111.234709252101	122
2	881	111.290288799899	123
2	889	112.652906164621	124
2	893	112.695429975387	125
2	901	113.936882244993	126
2	905	113.988333395168	127
2	909	114.017779934502	128
2	917	115.454364740999	129
2	925	116.88566289044	130
2	933	118.708337782396	131
2	937	118.739457007204	132
2	941	118.765746640451	133
2	945	118.806914435725	134
2	953	120.315902949329	135
2	957	120.363986711125	136
2	961	120.402932992053	137
2	969	122.265540912894	138
2	973	122.336025970771	139
2	981	123.996104936254	140
2	997	127.057301482056	141
2	1001	127.087576870788	142
2	1005	127.120821145545	143
2	1013	128.506890737809	144
2	1017	128.558779726368	145
2	1025	130.043269349081	146
2	1029	130.075560628697	147
2	1037	131.201805337491	148
2	1053	134.75618178835	149
2	1057	134.790405237397	150
2	1081	138.875532097134	151
2	1085	138.91259872312	152
2	1089	138.941850271019	153
2	1093	138.985380619911	154
2	1101	140.295684860384	155
2	1109	141.311499310777	156
2	1113	141.354876139368	157
2	1121	142.535786565158	158
2	1129	144.241446029742	159
2	1141	145.936382085197	160
2	1157	149.040451984888	161
2	1165	150.772275326677	162
2	1181	153.180446944757	163
2	1193	154.884660525697	164
2	1197	154.914900510781	165
2	1213	157.823853478015	166
2	1217	157.868163436644	167
2	1221	157.915281009785	168
2	1225	157.95028832803	169
2	1237	159.373730613416	170
2	1253	163.129619961371	171
2	1257	163.159342680152	172
2	1265	165.072155805483	173
2	1269	165.103350769874	174
2	1273	165.144738682439	175
2	1281	166.118952774999	176
2	1285	166.143298675776	177
2	1293	167.516912973204	178
2	1297	167.558118472563	179
2	1313	171.005170416141	180
2	1321	172.183987222249	181
2	1329	173.74041681133	182
2	1337	175.063652900237	183
2	1341	175.126916258988	184
2	1349	176.669027865557	185
2	1365	179.445268982434	186
2	1373	180.81660940411	187
2	1381	182.315672285379	188
2	1385	182.344778255862	189
2	1389	182.36695517363	190
2	1393	182.419307868937	191
2	1401	183.605320926629	192
2	1409	185.283007912592	193
2	1417	186.856904856128	194
2	1429	188.327702364941	195
2	1433	188.387929373064	196
2	1437	188.412657644965	197
2	1445	189.754056823858	198
2	1449	189.825387983973	199
2	1453	189.847389641995	200
2	1461	191.367355994028	201
2	1465	191.415028319283	202
2	1473	193.042540201996	203
2	1477	193.069889160182	204
2	1481	193.144871477544	205
2	1497	196.107218878979	206
2	1501	196.165668150474	207
2	1505	196.219693071321	208
2	1513	198.079375750232	209
2	1517	198.127097861119	210
2	1521	198.181041480917	211
2	1525	198.209446576841	212
2	1529	198.268085604397	213
2	1537	199.403664194529	214
2	1553	202.570355690381	215
2	1557	202.614036336791	216
2	1565	203.69537034424	217
2	1569	203.73120781743	218
2	1577	204.741131253298	219
2	1581	204.763725029836	220
2	1589	206.016951250911	221
2	1597	207.358697167079	222
2	1601	207.404900953201	223
2	1613	208.45954746583	224
2	1621	209.760558284783	225
2	1625	209.802425163257	226
2	1637	211.457402880541	227
2	1641	211.49768614433	228
2	1645	211.545575762554	229
2	1649	211.603689886939	230
2	1653	211.653875708729	231
2	1669	214.485637187704	232
2	1677	216.255396976109	233
2	1685	217.314120456247	234
2	1689	217.347194178676	235
2	1697	218.398161830288	236
2	1705	219.466700453842	237
2	1713	221.236700655147	238
2	1721	223.000442699677	239
2	1725	223.026122100972	240
2	1729	223.05138696224	241
2	1733	223.078642231062	242
2	1737	223.152510480925	243
2	1741	223.218558240806	244
2	1749	224.240584803746	245
2	1765	227.390952701232	246
2	1773	228.94732904366	247
2	1781	230.363849570282	248
2	1789	231.493771117343	249
2	1797	232.726517050353	250
2	1809	234.645960263365	251
2	1813	234.683555373513	252
2	1821	235.761770690746	253
2	1829	237.233160159517	254
2	1833	237.270401949578	255
2	1845	238.298753881975	256
2	1853	239.642933701053	257
2	1857	239.673329808513	258
2	1861	239.724033694279	259
2	1865	239.754529703386	260
3	7	0.141457398022	0
3	15	1.169875856529	1
3	31	4.293061360841	2
3	35	4.322441264351	3
3	39	4.361334692377	4
3	63	8.182930820203	5
3	71	9.541088656489	6
3	87	12.519737742417	7
3	95	14.119413828642	8
3	99	14.165777518427	9
3	107	15.124326143768	10
3	111	15.153743563205	11
3	119	16.507755279045	12
3	123	16.573988025695	13
3	131	17.923415509605	14
3	135	17.979365096972	15
3	143	19.167502341072	16
3	151	20.907893755665	17
3	159	22.251509747991	18
3	163	22.279393466774	19
3	171	24.049781446114	20
3	175	24.080351947818	21
3	183	25.22508023314	22
3	187	25.262429449855	23
3	191	25.287356331324	24
3	199	26.484255003075	25
3	207	28.121536660141	26
3	211	28.157011148021	27
3	215	28.182982728537	28
3	223	29.140466388561	29
3	231	30.426095145203	30
3	239	31.904425051681	31
3	243	31.949618360393	32
3	247	31.990169470475	33
3	255	33.584581478203	34
3	259	33.625274904495	35
3	267	35.302820380439	36
3	271	35.356328722394	37
3	287	38.793195273613	38
3	291	38.841349811511	39
3	295	38.864425558854	40
3	299	38.890129197467	41
3	307	40.631326051094	42
3	311	40.654334259992	43
3	315	40.703576689742	44
3	319	40.743028415687	45
3	323	40.783790383387	46
3	331	42.05963116378	47
3	339	43.32033272559	48
3	347	44.414903183443	49
3	351	44.455059505087	50
3	359	45.60674671985	51
3	363	45.630528632582	52
3	371	47.370230437267	53
3	375	47.438710471784	54
3	379	47.478254889957	55
3	387	48.932151929718	56
3	391	48.961074815601	57
3	399	50.002006364983	58
3	403	50.025425298316	59
3	411	51.245239552657	60
3	415	51.273958792949	61
3	423	53.219769305261	62
3	427	53.242683016181	63
3	435	54.875320070317	64
3	439	54.913372595382	65
3	447	56.831651851428	66
3	471	60.468398995898	67
3	487	64.029828385762	68
3	495	65.511307589379	69
3	499	65.548427732041	70
3	507	67.304154249895	71
3	511	67.358353299726	72
3	519	68.382307095361	73
3	523	68.421014962826	74
3	531	69.522067949427	75
3	535	69.557050045335	76
3	539	69.586755390239	77
3	543	69.646866147811	78
3	547	69.670856171211	79
3	555	70.772007288315	80
3	563	72.53807984572	81
3	567	72.561570336579	82
3	571	72.593616785661	83
3	587	75.485769605724	84
3	591	75.52188660806	85
3	595	75.569328681575	86
3	603	77.459231927904	87
3	607	77.496500330149	88
3	615	78.792436868871	89
3	623	80.226894454805	90
3	631	82.110467771338	91
3	635	82.141841983208	92
3	639	82.253386713154	93
3	647	83.417429327753	94
3	651	83.453515248622	95
3	659	85.169238307203	96
3	675	88.010080016706	97
3	679	88.054773288025	98
3	687	89.297431498313	99
3	691	89.33375454094	100
3	695	89.356838557997	101
3	703	91.129343781275	102
3	707	91.160301338466	103
3	711	91.189756906931	104
3	715	91.21689200668	105
3	719	91.268058140992	106
3	723	91.301414314578	107
3	731	92.827394352235	108
3	735	92.857032746925	109
3	743	94.657852273725	110
3	747	94.682986790002	111
3	755	95.718992804106	112
3	759	95.750801613315	113
3	763	95.777359253075	114
3	771	97.034328004726	115
3	779	99.078787876971	116
3	783	99.116929109285	117
3	787	99.146311751053	118
3	795	100.1125807444	119
3	799	100.142053334302	120
3	803	100.175172126763	121
3	807	100.208574993953	122
3	815	101.862644042395	123
3	819	101.893549308978	124
3	827	103.747691306419	125
3	835	105.530194071084	126
3	839	105.557723288577	127
3	847	106.546676766279	128
3	855	107.614760937564	129
3	863	109.434954609863	130
3	867	109.460955923597	131
3	875	111.22461158272	132
3	879	111.245822924741	133
3	883	111.306623776734	134
3	891	112.667418511812	135
3	895	112.712552869713	136
3	903	113.967756412679	137
3	907	114.002567886758	138
3	911	114.037749830163	139
3	919	115.471966247349	140
3	927	116.901059026265	141
3	935	118.720658195715	142
3	939	118.750168611748	143
3	943	118.775862315794	144
3	947	118.826972181316	145
3	955	120.353778921135	146
3	959	120.390713368598	147
3	963	120.419509419921	148
3	971	122.300047586953	149
3	975	122.347318391645	150
3	983	124.008532893232	151
3	999	127.073650445717	152
3	1003	127.103383001535	153
3	1007	127.132170556871	154
3	1015	128.54638399171	155
3	1019	128.597297654979	156
3	1027	130.059421792656	157
3	1031	130.109698241425	158
3	1039	131.219634369609	159
3	1047	132.913240278125	160
3	1055	134.778287645902	161
3	1059	134.80384220093	162
3	1075	137.641230933767	163
3	1083	138.897479895618	164
3	1087	138.923156963664	165
3	1091	138.974098697496	166
3	1095	139.001241007531	167
3	1103	140.322132542461	168
3	1111	141.336439052122	169
3	1115	141.37323854579	170
3	1123	142.553947875143	171
3	1131	144.255085227166	172
3	1139	145.922485289449	173
3	1143	145.950268573248	174
3	1151	147.437414822177	175
3	1159	149.053238315911	176
3	1167	150.788688200328	177
3	1183	153.194984177014	178
3	1191	154.872128039473	179
3	1195	154.89823532743	180
3	1199	154.935071624679	181
3	1215	157.844178735302	182
3	1219	157.901238566366	183
3	1223	157.926059578583	184
3	1227	157.972595239953	185
3	1235	159.36121123494	186
3	1239	159.391198073495	187
3	1255	163.145786545892	188
3	1259	163.170700286956	189
3	1267	165.093207333756	190
3	1271	165.132468597845	191
3	1275	165.163129432411	192
3	1283	166.131322927097	193
3	1287	166.163092241206	194
3	1295	167.538611891756	195
3	1299	167.584281848894	196
3	1315	171.017328495878	197
3	1323	172.196638899384	198
3	1331	173.769603640048	199
3	1339	175.114673831194	200
3	1343	175.138524889016	201
3	1351	176.683681216925	202
3	1359	178.050837258563	203
3	1367	179.459103462885	204
3	1375	180.829289604521	205
3	1383	182.329627833582	206
3	1387	182.355752515128	207
3	1391	182.389837555495	208
3	1395	182.443653399281	209
3	1403	183.622104836526	210
3	1411	185.328028259707	211
3	1419	186.875576359129	212
3	1427	188.305857533083	213
3	1431	188.376604955875	214
3	1435	188.399784975078	215
3	1439	188.428824293614	216
3	1447	189.791589526926	217
3	1451	189.836909967178	218
3	1455	189.861019686036	219
3	1463	191.391532357288	220
3	1467	191.450762795859	221
3	1475	193.055015599701	222
3	1479	193.122386546631	223
3	1483	193.158103260307	224
3	1491	194.788209977985	225
3	1499	196.14030044885	226
3	1503	196.176090943615	227
3	1507	196.23082149602	228
3	1515	198.10748099594	229
3	1519	198.155220107919	230
3	1523	198.198656022207	231
3	1527	198.25602847255	232
3	1531	198.330966851693	233
3	1539	199.416921638882	234
3	1555	202.586672672985	235
3	1559	202.635938825719	236
3	1567	203.712775119643	237
3	1571	203.744236176314	238
3	1579	204.752281471961	239
3	1583	204.781436618938	240
3	1591	206.059827157871	241
3	1599	207.375156395837	242
3	1603	207.430610818857	243
3	1611	208.444614245424	244
3	1615	208.473949092427	245
3	1623	209.781109195966	246
3	1627	209.813010705062	247
3	1635	211.432938509728	248
3	1639	211.468235455017	249
3	1643	211.51285422946	250
3	1647	211.576173096911	251
3	1651	211.61798011122	252
3	1655	211.669199559285	253
3	1671	214.49760897375	254
3	1679	216.287984943828	255
3	1687	217.334226720354	256
3	1691	217.376284289417	257
3	1699	218.460285666569	258
3	1707	219.481980106162	259
3	1715	221.247389783656	260
3	1723	223.015398162929	261
3	1727	223.036288107545	262
3	1731	223.065627834783	263
3	1735	223.107405068607	264
3	1739	223.178681006902	265
3	1743	223.232353700418	266
3	1751	224.258605384749	267
3	1759	226.243574835222	268
3	1767	227.413200683878	269
3	1775	228.966833506744	270
3	1783	230.404977154414	271
3	1791	231.513365709003	272
3	1799	232.762142281895	273
3	1807	234.624843857784	274
3	1811	234.666323476368	275
3	1815	234.699580546064	276
3	1823	235.773527140863	277
3	1831	237.243551631014	278
3	1835	237.292456594744	279
3	1843	238.28830306007	280
3	1847	238.309922519838	281
3	1855	239.65506851382	282
3	1859	239.689277437138	283
3	1863	239.741101717645	284
3	1867	239.764628420947	285
4	8	0.151457398022	0
4	16	1.179875856529	1
4	24	2.789882674062	2
4	40	4.371334692377	3
4	48	5.402134488928	4
4	56	6.600830057112	5
4	64	8.192930820203	6
4	72	9.551088656489	7
4	80	11.508382995441	8
4	88	12.529737742417	9
4	100	14.175777518427	10
4	112	15.163743563205	11
4	124	16.583988025695	12
4	136	17.989365096972	13
4	144	19.177502341072	14
4	152	20.917893755665	15
4	164	22.289393466774	16
4	176	24.090351947818	17
4	192	25.297356331324	18
4	200	26.494255003075	19
4	216	28.192982728537	20
4	224	29.150466388561	21
4	232	30.436095145203	22
4	248	32.000169470475	23
4	260	33.635274904495	24
4	272	35.366328722394	25
4	280	37.279737609213	26
4	300	38.900129197467	27
4	324	40.793790383387	28
4	332	42.06963116378	29
4	340	43.33033272559	30
4	352	44.465059505087	31
4	364	45.640528632582	32
4	380	47.488254889957	33
4	392	48.971074815601	34
4	404	50.035425298316	35
4	416	51.283958792949	36
4	428	53.252683016181	37
4	440	54.923372595382	38
4	448	56.841651851428	39
4	456	57.878479297146	40
4	464	59.372297474445	41
4	472	60.478398995898	42
4	480	62.061887522788	43
4	488	64.039828385762	44
4	500	65.558427732041	45
4	512	67.368353299726	46
4	524	68.431014962826	47
4	548	69.680856171211	48
4	556	70.782007288315	49
4	572	72.603616785661	50
4	580	73.966522202943	51
4	596	75.579328681575	52
4	608	77.506500330149	53
4	616	78.802436868871	54
4	624	80.236894454805	55
4	640	82.263386713154	56
4	652	83.463515248622	57
4	660	85.179238307203	58
4	668	86.949820200782	59
4	680	88.064773288025	60
4	696	89.366838557997	61
4	724	91.311414314578	62
4	736	92.867032746925	63
4	748	94.692986790002	64
4	764	95.787359253075	65
4	772	97.044328004726	66
4	788	99.156311751053	67
4	808	100.218574993953	68
4	820	101.903549308978	69
4	828	103.757691306419	70
4	840	105.567723288577	71
4	848	106.556676766279	72
4	856	107.624760937564	73
4	868	109.470955923597	74
4	884	111.316623776734	75
4	896	112.722552869713	76
4	912	114.047749830163	77
4	920	115.481966247349	78
4	928	116.911059026265	79
4	948	118.836972181316	80
4	964	120.429509419921	81
4	976	122.357318391645	82
4	984	124.018532893232	83
4	992	125.677872776016	84
4	1008	127.142170556871	85
4	1020	128.607297654979	86
4	1032	130.119698241425	87
4	1040	131.229634369609	88
4	1048	132.923240278125	89
4	1060	134.81384220093	90
4	1068	135.901455110842	91
4	1076	137.651230933767	92
4	1096	139.011241007531	93
4	1104	140.332132542461	94
4	1116	141.38323854579	95
4	1124	142.563947875143	96
4	1132	144.265085227166	97
4	1144	145.960268573248	98
4	1152	147.447414822177	99
4	1160	149.063238315911	100
4	1168	150.798688200328	101
4	1176	152.150327110331	102
4	1184	153.204984177014	103
4	1200	154.945071624679	104
4	1208	155.929857347976	105
4	1228	157.982595239953	106
4	1240	159.401198073495	107
4	1248	161.349405149926	108
4	1260	163.180700286956	109
4	1276	165.173129432411	110
4	1288	166.173092241206	111
4	1300	167.594281848894	112
4	1308	169.521196043182	113
4	1316	171.027328495878	114
4	1324	172.206638899384	115
4	1332	173.779603640048	116
4	1344	175.148524889016	117
4	1352	176.693681216925	118
4	1360	178.060837258563	119
4	1368	179.469103462885	120
4	1376	180.839289604521	121
4	1396	182.453653399281	122
4	1404	183.632104836526	123
4	1412	185.338028259707	124
4	1420	186.885576359129	125
4	1440	188.438824293614	126
4	1456	189.871019686036	127
4	1468	191.460762795859	128
4	1484	193.168103260307	129
4	1492	194.798209977985	130
4	1508	196.24082149602	131
4	1532	198.340966851693	132
4	1540	199.426921638882	133
4	1548	201.288465986158	134
4	1560	202.645938825719	135
4	1572	203.754236176314	136
4	1584	204.791436618938	137
4	1592	206.069827157871	138
4	1604	207.440610818857	139
4	1616	208.483949092427	140
4	1628	209.823010705062	141
4	1656	211.679199559285	142
4	1664	212.541033322058	143
4	1672	214.50760897375	144
4	1680	216.297984943828	145
4	1692	217.386284289417	146
4	1700	218.470285666569	147
4	1708	219.491980106162	148
4	1716	221.257389783656	149
4	1744	223.242353700418	150
4	1752	224.268605384749	151
4	1760	226.253574835222	152
4	1768	227.423200683878	153
4	1776	228.976833506744	154
4	1784	230.414977154414	155
4	1792	231.523365709003	156
4	1800	232.772142281895	157
4	1816	234.709580546064	158
4	1824	235.783527140863	159
4	1836	237.302456594744	160
4	1848	238.319922519838	161
4	1868	239.774628420947	162
5	19	2.750075030929	0
5	43	5.351487635351	1
5	51	6.544773981201	2
5	59	8.131380733019	3
5	75	11.421202361678	4
5	115	16.476593375498	5
5	139	19.117837615474	6
5	155	22.206599546085	7
5	203	28.076704914206	8
5	251	33.545933213319	9
5	263	35.270041537248	10
5	275	37.20841720678	11
5	335	43.279713833122	12
5	355	45.578871540123	13
5	367	47.288452263209	14
5	383	48.889237382582	15
5	395	49.958122775166	16
5	443	56.768412113198	17
5	451	57.835638445603	18
5	459	59.306182751486	19
5	475	62.0227142118	20
5	483	63.988323128513	21
5	503	67.271528272275	22
5	527	69.496246994199	23
5	551	70.746420163727	24
5	559	72.507840072038	25
5	575	73.890214967187	26
5	619	80.174378882785	27
5	627	82.062440588354	28
5	643	83.38103728691	29
5	663	86.915220082675	30
5	671	87.973824690082	31
5	727	92.802851106261	32
5	791	100.047005459855	33
5	811	101.827795125619	34
5	843	106.514118052889	35
5	859	109.393842458132	36
5	871	111.196344595948	37
5	951	120.303954724989	38
5	987	125.607619770908	39
5	1043	132.875983725768	40
5	1063	135.858365357574	41
5	1071	137.594951869841	42
5	1079	138.852748049874	43
5	1107	141.291759573241	44
5	1135	145.883449503252	45
5	1147	147.405715309158	46
5	1171	152.10610687963	47
5	1187	154.837124043311	48
5	1203	155.880693034902	49
5	1211	157.803474995586	50
5	1231	159.335156331369	51
5	1243	161.307797935029	52
5	1291	167.502848009666	53
5	1303	169.488837201122	54
5	1311	170.991110213132	55
5	1335	175.042724363977	56
5	1355	178.018547157672	57
5	1399	183.587928710419	58
5	1407	185.271765215568	59
5	1423	188.277554128365	60
5	1487	194.760799416342	61
5	1511	198.048522946202	62
5	1535	199.390332884526	63
5	1543	201.246995474753	64
5	1587	205.984300812941	65
5	1595	207.333327113106	66
5	1607	208.403610169386	67
5	1631	211.393921378052	68
5	1659	212.495618045624	69
5	1675	216.227072795789	70
5	1703	219.453220989721	71
5	1719	222.961719211071	72
5	1755	226.191353538613	73
5	1771	228.92768004579	74
5	1803	234.597028742183	75
5	1827	237.212911967554	76
5	1839	238.24235837095	77
6	21	2.763065806229	0
6	45	5.377242336559	1
6	53	6.573898418025	2
6	77	11.453122082817	3
6	117	16.496558698695	4
6	141	19.132435891945	5
6	253	33.573504089786	6
6	265	35.285864549887	7
6	277	37.233678888705	8
6	445	56.794294518626	9
6	453	57.85610183081	10
6	461	59.331069895343	11
6	477	62.040443889946	12
6	485	64.004876310984	13
6	529	69.511106843822	14
6	577	73.936212803151	15
6	629	82.07608633982	16
6	665	86.926719699123	17
6	673	87.994730012594	18
6	729	92.813084901688	19
6	845	106.526427497172	20
6	989	125.627543428495	21
6	1045	132.894067126866	22
6	1065	135.870288700632	23
6	1073	137.616616713597	24
6	1137	145.908266523087	25
6	1149	147.422690007422	26
6	1173	152.13003613013	27
6	1189	154.862048383656	28
6	1205	155.896985852546	29
6	1233	159.346116599167	30
6	1245	161.322484523635	31
6	1305	169.499195233674	32
6	1357	178.040334380128	33
6	1425	188.293558293022	34
6	1489	194.770857130438	35
6	1545	201.268247430527	36
6	1609	208.431344192832	37
6	1633	211.420491857042	38
6	1661	212.512191463013	39
6	1757	226.201507610548	40
6	1805	234.61118605374	41
6	1841	238.269494073112	42
7	23	2.779882674062	0
7	47	5.392134488928	1
7	55	6.590830057112	2
7	79	11.498382995441	3
7	279	37.269737609213	4
7	455	57.868479297146	5
7	463	59.362297474445	6
7	479	62.051887522788	7
7	579	73.956522202943	8
7	667	86.939820200782	9
7	991	125.667872776016	10
7	1067	135.891455110842	11
7	1175	152.140327110331	12
7	1207	155.919857347976	13
7	1247	161.339405149926	14
7	1307	169.511196043182	15
7	1547	201.278465986158	16
7	1663	212.531033322058	17

