version 2
run General-4-20230921-23:26:41-9324
attr configname General
attr datetime 20230921-23:26:41
attr experiment General
attr inifile omnetpp.ini
attr iterationvars ""
attr iterationvarsf ""
attr measurement ""
attr network Network3
attr processid 9324
attr repetition 4
attr replication #4
attr resultdir results
attr runnumber 4
attr seedset 4
param Network3.node[*].transmissionTime "uniform(1s, 2s)"
param Network3.node[*].delayTime "uniform(0.01s, 0.2s)"
param Network3.node[*].processingTime exponential(0.01s)
param Network3.node[0].lossProbability 0
param Network3.node[1].lossProbability 0.0
param Network3.node[2].lossProbability 0.0
param Network3.node[3].lossProbability "0.0 / 2"
param Network3.node[4].lossProbability "0.0 / 2"
param Network3.node[6].lossProbability "0.0 * 2"
param Network3.node[7].lossProbability "0.0 * 2"
param Network3.node[5].lossProbability "0.0 * 3"

vector 0 Network3.node[0] txVector ETV
vector 1 Network3.node[1] txVector ETV
vector 2 Network3.node[4] txVector ETV
vector 3 Network3.node[7] txVector ETV
vector 4 Network3.node[5] rxVector ETV
vector 5 Network3.node[2] txVector ETV
vector 6 Network3.node[3] txVector ETV
vector 7 Network3.node[6] txVector ETV
0	1	0.193735669288	0
0	13	1.740967922532	1
0	21	3.520350848478	2
0	29	4.529336942979	3
0	37	6.315642927228	4
0	69	8.049023092645	5
0	89	9.686580160786	6
0	97	10.771241773073	7
0	129	12.374805283187	8
0	149	13.767586454902	9
0	161	15.379408273999	10
0	169	17.142401922182	11
0	177	18.685692235981	12
0	185	19.958163697193	13
0	193	21.246200525821	14
0	201	22.798126961724	15
0	213	23.932879567533	16
0	221	25.299215705521	17
0	233	27.26788983556	18
0	245	28.419775438183	19
0	253	30.365603733961	20
0	261	32.190424658278	21
0	277	33.523881038105	22
0	285	34.758598087042	23
0	293	36.712817180821	24
0	301	38.223723303679	25
0	309	39.70549046147	26
0	317	40.984944061528	27
0	325	42.027842590504	28
0	349	43.110550201417	29
0	365	44.304065165727	30
0	373	45.668042486918	31
0	381	47.094313650078	32
0	393	49.034255189507	33
0	413	50.606079883094	34
0	425	51.929831840715	35
0	437	53.1799737475	36
0	445	54.671044495108	37
0	461	56.516583589523	38
0	469	57.770196115284	39
0	481	59.221003849444	40
0	489	61.074177280453	41
0	497	62.396838295891	42
0	505	63.888711560902	43
0	513	65.670616049238	44
0	529	66.75233007028	45
0	545	68.503713520628	46
0	557	70.337830861949	47
0	569	71.777305049508	48
0	577	72.95938005593	49
0	589	74.794579304209	50
0	605	75.923563088676	51
0	613	77.811025434094	52
0	621	79.475696399961	53
0	629	81.459662110698	54
0	641	83.269744376572	55
0	649	84.732281026118	56
0	661	85.751299904813	57
0	669	86.979217403256	58
0	681	88.778643716746	59
0	689	90.417508190884	60
0	697	91.480260002813	61
0	705	92.498830901612	62
0	717	94.432468203748	63
0	725	95.472277675676	64
0	733	97.027807957413	65
0	749	98.750115765412	66
0	765	99.863652958921	67
0	781	101.584047738849	68
0	793	103.562043915889	69
0	801	105.535090433587	70
0	817	107.222053960352	71
0	825	109.177155329301	72
0	833	110.373823441486	73
0	841	111.511962219528	74
0	849	113.419664919996	75
0	861	114.54515151951	76
0	873	116.084172599404	77
0	885	117.587341418178	78
0	897	118.636239492954	79
0	905	119.97193836995	80
0	917	121.564012762081	81
0	925	123.492508846723	82
0	933	124.675192908539	83
0	945	125.718398405627	84
0	953	127.329734476206	85
0	961	128.691136722609	86
0	973	130.209711640065	87
0	981	131.775904816731	88
0	1005	133.140534170128	89
0	1013	134.679139590745	90
0	1021	136.211564379201	91
0	1029	137.816174958289	92
0	1037	139.232302207888	93
0	1057	140.743913903988	94
0	1065	142.467630508279	95
0	1073	144.112748315947	96
0	1085	145.419757384032	97
0	1093	146.9955352246	98
0	1101	148.132864572963	99
0	1117	149.669517621322	100
0	1129	151.181141624151	101
0	1145	153.126181019394	102
0	1157	154.4430252555	103
0	1165	155.965523625415	104
0	1173	157.426025969599	105
0	1181	159.032852853107	106
0	1197	160.053826764849	107
0	1205	161.851405666367	108
0	1217	163.733931968379	109
0	1225	165.651978799765	110
0	1233	167.118811832433	111
0	1241	168.744451320422	112
0	1257	170.196320812375	113
0	1265	171.786987187032	114
0	1273	172.968372159329	115
0	1281	174.493739558541	116
0	1289	175.664838667418	117
0	1301	177.010336893303	118
0	1309	178.953688263818	119
0	1321	180.237507130177	120
0	1353	181.656315682148	121
0	1365	182.779762446805	122
0	1393	184.715233809472	123
0	1405	186.501228270045	124
0	1417	187.906311948475	125
0	1433	189.088429571286	126
0	1441	190.765522478771	127
0	1449	192.463617680984	128
0	1457	194.026969467679	129
0	1465	195.117830423795	130
0	1477	196.915145476971	131
0	1485	198.207769139128	132
0	1497	199.98869343886	133
0	1509	201.759644957183	134
0	1525	202.986042661749	135
0	1533	204.307639656512	136
0	1545	205.781695876194	137
0	1569	207.755950851522	138
0	1593	209.744078161118	139
0	1605	211.721689599024	140
0	1625	213.714516556512	141
0	1633	214.878304167574	142
0	1641	216.140588367747	143
0	1657	217.202854637446	144
0	1677	219.07921620311	145
0	1685	220.196117583818	146
0	1693	221.33040626805	147
0	1713	223.082467736832	148
0	1721	224.509878904016	149
0	1737	225.964666657306	150
0	1749	227.637765398638	151
0	1761	229.240900191169	152
0	1769	230.843868732609	153
0	1785	232.007245395955	154
0	1797	233.399877966306	155
0	1805	234.859258856549	156
0	1813	235.932838694816	157
0	1821	237.158817745903	158
0	1833	238.408011660603	159
1	3	0.239738625497	0
1	15	1.753170463228	1
1	31	4.559457710445	2
1	91	9.705674965704	3
1	131	12.394453003111	4
1	171	17.152746569807	5
1	179	18.72558356568	6
1	187	19.973399795073	7
1	195	21.25819680845	8
1	279	33.542162765969	9
1	287	34.769187160917	10
1	295	36.73706695648	11
1	303	38.24450829002	12
1	311	39.716800541535	13
1	319	41.013189617888	14
1	327	42.039544926096	15
1	383	47.120829264004	16
1	427	51.94554602784	17
1	447	54.686416915378	18
1	483	59.237896056619	19
1	515	65.684014214395	20
1	531	66.790648790181	21
1	559	70.350447967042	22
1	571	71.801772139886	23
1	579	72.972024586299	24
1	615	77.850863766727	25
1	623	79.491327181617	26
1	643	83.28189388579	27
1	663	85.765324315152	28
1	671	86.991319144392	29
1	683	88.797450234049	30
1	691	90.432230261347	31
1	699	91.516642587938	32
1	719	94.44440520649	33
1	727	95.483879193949	34
1	751	98.762612294561	35
1	783	101.601685369153	36
1	843	111.572304611152	37
1	851	113.431847051382	38
1	875	116.114134111765	39
1	887	117.609348003317	40
1	899	118.650201101633	41
1	935	124.695629769481	42
1	947	125.77016615024	43
1	975	130.220487253743	44
1	983	131.790328939686	45
1	1015	134.706834625505	46
1	1023	136.233172712982	47
1	1031	137.835740300122	48
1	1087	145.442585003438	49
1	1095	147.020090510335	50
1	1131	151.204931848005	51
1	1147	153.14225116594	52
1	1159	154.458876159178	53
1	1167	155.982124259788	54
1	1175	157.444891879199	55
1	1183	159.051388354357	56
1	1199	160.071055445581	57
1	1219	163.757831222982	58
1	1243	168.756609890199	59
1	1259	170.222140996048	60
1	1267	171.798593959553	61
1	1283	174.504197054094	62
1	1303	177.029716901203	63
1	1323	180.257506994109	64
1	1367	182.799459006454	65
1	1407	186.51758241115	66
1	1419	187.947345283686	67
1	1451	192.481714875249	68
1	1459	194.041416028869	69
1	1487	198.22320232685	70
1	1499	200.010531350429	71
1	1511	201.786253334609	72
1	1527	203.018520474914	73
1	1571	207.769649217231	74
1	1595	209.766791052083	75
1	1643	216.157366745986	76
1	1679	219.115487927305	77
1	1751	227.659436165691	78
1	1763	229.257409101387	79
1	1799	233.422174384013	80
1	1807	234.883921787211	81
1	1823	237.18354971675	82
1	1835	238.43577971565	83
2	5	0.259130013166	0
2	9	0.284107166795	1
2	17	1.767656741964	2
2	25	3.555563598021	3
2	41	6.361318725204	4
2	45	6.389057947197	5
2	49	6.418930281705	6
2	53	6.448769426067	7
2	57	6.480042575266	8
2	61	6.511058254478	9
2	65	6.536899948951	10
2	73	8.071935430625	11
2	77	8.120785813651	12
2	81	8.150584018906	13
2	85	8.193361377741	14
2	101	10.793692365424	15
2	105	10.827795347057	16
2	109	10.851960297436	17
2	113	10.880569614164	18
2	117	10.918959153779	19
2	121	10.967787783364	20
2	125	10.994275001219	21
2	133	12.409090931599	22
2	137	12.43515953722	23
2	141	12.515028598813	24
2	145	12.561996851827	25
2	153	13.802902773128	26
2	157	13.854992700535	27
2	165	15.413760247872	28
2	173	17.162915159594	29
2	205	22.832872943441	30
2	209	22.886053933584	31
2	217	23.974303345533	32
2	225	25.348704401675	33
2	229	25.383472429847	34
2	237	27.311940043569	35
2	241	27.336670738434	36
2	249	28.450411226409	37
2	257	30.390572499237	38
2	265	32.237356714889	39
2	269	32.263338203636	40
2	273	32.293011861205	41
2	305	38.255694710124	42
2	329	42.060415368636	43
2	333	42.086859059596	44
2	337	42.110523629965	45
2	341	42.148359148719	46
2	345	42.170181135548	47
2	353	43.147648800125	48
2	357	43.19579482067	49
2	361	43.242157690969	50
2	369	44.364321416167	51
2	377	45.692470156613	52
2	389	47.203088360202	53
2	397	49.062676874039	54
2	401	49.086452106424	55
2	405	49.12322952934	56
2	409	49.15398910631	57
2	417	50.651258135028	58
2	421	50.695696722926	59
2	429	51.957255019859	60
2	433	52.018872483685	61
2	441	53.237513533364	62
2	449	54.707551569365	63
2	453	54.755132942397	64
2	457	54.779112641404	65
2	465	56.569203752206	66
2	473	57.794411405941	67
2	477	57.868860058265	68
2	493	61.122695741791	69
2	501	62.431622997008	70
2	509	63.950588302222	71
2	517	65.696458130163	72
2	521	65.725701166155	73
2	525	65.800938569977	74
2	537	66.83750422468	75
2	541	66.864978210832	76
2	549	68.532829850891	77
2	553	68.576950127325	78
2	565	70.460194604362	79
2	573	71.813821079315	80
2	585	73.029012738852	81
2	593	74.8361193855	82
2	597	74.870816221929	83
2	601	74.897497074085	84
2	609	75.95735108791	85
2	625	79.537444210656	86
2	633	81.507849254811	87
2	637	81.586835998344	88
2	653	84.771340393424	89
2	657	84.833693148334	90
2	677	87.051990523305	91
2	693	90.442902334629	92
2	709	92.53324606596	93
2	713	92.586499822751	94
2	737	97.066482748345	95
2	741	97.09921884611	96
2	745	97.133841439551	97
2	753	98.773370113159	98
2	757	98.811970264552	99
2	761	98.850963973478	100
2	769	99.893262598934	101
2	773	99.934795296145	102
2	777	99.977365752758	103
2	789	101.67266904613	104
2	797	103.584446777347	105
2	805	105.56888142689	106
2	809	105.605083068115	107
2	813	105.631466921591	108
2	821	107.270821950007	109
2	829	109.19802241472	110
2	837	110.407664657613	111
2	853	113.44442003222	112
2	857	113.466006307806	113
2	865	114.589807629755	114
2	869	114.623351189263	115
2	877	116.135295171613	116
2	881	116.163245882507	117
2	889	117.655122533996	118
2	893	117.702656250968	119
2	909	120.013494504648	120
2	913	120.072790045831	121
2	921	121.586947975629	122
2	929	123.537011088035	123
2	937	124.705870108872	124
2	941	124.753157880588	125
2	949	125.791628899709	126
2	957	127.384553184229	127
2	965	128.71411198776	128
2	969	128.754613181625	129
2	985	131.805679855879	130
2	989	131.829911517569	131
2	993	131.892984097776	132
2	997	131.915033166618	133
2	1001	131.952769962728	134
2	1009	133.185118640375	135
2	1033	137.858377008184	136
2	1041	139.254850839899	137
2	1045	139.28808443549	138
2	1049	139.325259835179	139
2	1053	139.359136312274	140
2	1061	140.803161690735	141
2	1069	142.499935391906	142
2	1077	144.151854369298	143
2	1081	144.194124184203	144
2	1089	145.455798156859	145
2	1097	147.046181581881	146
2	1105	148.158834060687	147
2	1109	148.182487701039	148
2	1113	148.241805904431	149
2	1121	149.745390702995	150
2	1125	149.7864554466	151
2	1137	151.266233360641	152
2	1141	151.307040884756	153
2	1149	153.163028393147	154
2	1153	153.199556365596	155
2	1161	154.481390247523	156
2	1185	159.063762986754	157
2	1189	159.120149003688	158
2	1193	159.154292199361	159
2	1209	161.881208091725	160
2	1213	161.927543515003	161
2	1229	165.673807844848	162
2	1237	167.156872498281	163
2	1245	168.769984190906	164
2	1249	168.794654216221	165
2	1253	168.836269237528	166
2	1261	170.237320353165	167
2	1269	171.818474030407	168
2	1277	173.004942456812	169
2	1293	175.721209320999	170
2	1297	175.75786646357	171
2	1305	177.048878835031	172
2	1313	179.008677037508	173
2	1317	179.041422489511	174
2	1325	180.288247038447	175
2	1329	180.316596314522	176
2	1333	180.343843326851	177
2	1337	180.378792410754	178
2	1341	180.418696392468	179
2	1345	180.466454871277	180
2	1349	180.510409297876	181
2	1357	181.701253625256	182
2	1361	181.735887142388	183
2	1369	182.824357905507	184
2	1373	182.851193180219	185
2	1377	182.891774476537	186
2	1381	182.923077162246	187
2	1385	182.964179041238	188
2	1389	183.014173340585	189
2	1397	184.754770289088	190
2	1401	184.795274449648	191
2	1409	186.557016676594	192
2	1413	186.601911086308	193
2	1421	187.97822478031	194
2	1425	188.001798946346	195
2	1429	188.02909778746	196
2	1437	189.128839733863	197
2	1445	190.819501833099	198
2	1453	192.502135026613	199
2	1469	195.170000282132	200
2	1473	195.193752342674	201
2	1481	196.942601422451	202
2	1489	198.233513651874	203
2	1493	198.271421659344	204
2	1501	200.034386452306	205
2	1505	200.099423538447	206
2	1517	201.87587436488	207
2	1521	201.906786707464	208
2	1529	203.032819856549	209
2	1537	204.358377499884	210
2	1541	204.38736859078	211
2	1549	205.816180228843	212
2	1553	205.865420089538	213
2	1557	205.893260086093	214
2	1561	205.923651638111	215
2	1565	205.966789922933	216
2	1573	207.804053111601	217
2	1577	207.842801459013	218
2	1581	207.864609106901	219
2	1585	207.893958960933	220
2	1589	207.925879257958	221
2	1601	209.802963224288	222
2	1609	211.782764586614	223
2	1613	211.813486259	224
2	1617	211.851450107276	225
2	1621	211.875304709081	226
2	1629	213.736134875409	227
2	1637	214.914657844172	228
2	1645	216.200646389573	229
2	1649	216.232906405197	230
2	1653	216.264767109943	231
2	1661	217.252770723003	232
2	1665	217.280152105551	233
2	1669	217.314016194764	234
2	1673	217.34863795875	235
2	1689	220.245631897578	236
2	1697	221.366843255856	237
2	1701	221.410618835168	238
2	1705	221.450277336165	239
2	1709	221.484421315968	240
2	1717	223.10972374841	241
2	1725	224.551687416869	242
2	1729	224.598930878794	243
2	1733	224.651581729846	244
2	1741	225.996378808113	245
2	1745	226.048412644804	246
2	1757	227.709964378266	247
2	1765	229.270389867529	248
2	1773	230.881257349874	249
2	1777	230.923831810001	250
2	1781	230.980458150448	251
2	1789	232.055419179686	252
2	1793	232.084645321741	253
2	1809	234.907949952895	254
2	1817	235.9756123348	255
2	1829	237.23855842812	256
3	7	0.271564617407	0
3	11	0.297023831605	1
3	19	1.779446121766	2
3	27	3.571293208786	3
3	35	4.594461498147	4
3	43	6.37869381546	5
3	47	6.40693698072	6
3	51	6.434063493096	7
3	55	6.468548856716	8
3	59	6.494751828093	9
3	63	6.523984257991	10
3	67	6.569485742194	11
3	75	8.106992612466	12
3	79	8.136177658378	13
3	83	8.164606339883	14
3	87	8.223095220567	15
3	103	10.813226136549	16
3	107	10.838292861785	17
3	111	10.869189223551	18
3	115	10.897258797712	19
3	119	10.95509392311	20
3	123	10.982322051958	21
3	127	11.00637019103	22
3	135	12.424409248968	23
3	139	12.484089716329	24
3	143	12.538233616927	25
3	147	12.576265547469	26
3	155	13.818155852723	27
3	159	13.893567346395	28
3	167	15.424169417045	29
3	175	17.183898034953	30
3	191	20.036062333012	31
3	207	22.860558332009	32
3	211	22.900207973248	33
3	219	24.011681873088	34
3	227	25.366848109601	35
3	231	25.40360178624	36
3	239	27.32568268857	37
3	243	27.346973000863	38
3	251	28.487498606078	39
3	259	30.405814686173	40
3	267	32.249980054798	41
3	271	32.277481621106	42
3	275	32.304326942946	43
3	283	33.592048047189	44
3	307	38.285803136803	45
3	315	39.744791410409	46
3	331	42.075908537264	47
3	335	42.09703595163	48
3	339	42.122359616211	49
3	343	42.158743908512	50
3	347	42.182779132055	51
3	355	43.176103988904	52
3	359	43.216804607406	53
3	363	43.263742469904	54
3	371	44.393974068107	55
3	379	45.70951844944	56
3	387	47.160490552686	57
3	391	47.219531243159	58
3	399	49.073271456256	59
3	403	49.102931031724	60
3	407	49.136419140414	61
3	411	49.165261554445	62
3	419	50.661532878934	63
3	423	50.70601206992	64
3	431	51.995195825802	65
3	435	52.047726132557	66
3	443	53.265311486334	67
3	451	54.7370352275	68
3	455	54.768519584757	69
3	459	54.820138232815	70
3	467	56.589673663136	71
3	475	57.844873734869	72
3	479	57.885530313934	73
3	495	61.148966466773	74
3	503	62.451698593866	75
3	511	63.97177226354	76
3	519	65.715134647764	77
3	523	65.768221304934	78
3	527	65.822758872806	79
3	535	66.826235603335	80
3	539	66.853946405835	81
3	543	66.88226802969	82
3	551	68.544908616718	83
3	555	68.598366025716	84
3	563	70.398179683312	85
3	567	70.483568948291	86
3	575	71.82468563312	87
3	583	72.998204119102	88
3	587	73.051293570976	89
3	595	74.848281051329	90
3	599	74.886991063424	91
3	603	74.919046641902	92
3	611	75.970834854919	93
3	627	79.549950844766	94
3	635	81.541232175882	95
3	639	81.628565178817	96
3	655	84.783028978988	97
3	659	84.848128215047	98
3	675	87.035838031235	99
3	679	87.06806173938	100
3	695	90.464137965957	101
3	703	91.545275518015	102
3	711	92.561840373449	103
3	715	92.614601701138	104
3	739	97.082188641758	105
3	743	97.1198359677	106
3	747	97.165302430569	107
3	755	98.793263928443	108
3	759	98.828660078749	109
3	763	98.871098904869	110
3	771	99.911781043724	111
3	775	99.963459353112	112
3	779	99.987776033819	113
3	787	101.624760626389	114
3	791	101.693903056966	115
3	799	103.640319350015	116
3	807	105.592558421061	117
3	811	105.620286154058	118
3	815	105.642369488805	119
3	823	107.292249888717	120
3	831	109.227899950398	121
3	839	110.464256902133	122
3	847	111.613144881019	123
3	855	113.454586444766	124
3	859	113.487149227782	125
3	867	114.604429308859	126
3	871	114.634155219008	127
3	879	116.149721626696	128
3	883	116.184996356189	129
3	891	117.674476857317	130
3	895	117.716858747429	131
3	911	120.043211277777	132
3	915	120.090436748428	133
3	923	121.605470106234	134
3	931	123.548969599442	135
3	939	124.717513999644	136
3	943	124.775729992471	137
3	951	125.806672080802	138
3	959	127.396912183093	139
3	967	128.736595829851	140
3	971	128.772231956028	141
3	987	131.816748001619	142
3	991	131.877208026836	143
3	995	131.903735320022	144
3	999	131.934602273387	145
3	1003	131.964706710833	146
3	1011	133.200362279171	147
3	1027	136.281056064878	148
3	1035	137.870707839103	149
3	1043	139.269873667945	150
3	1047	139.301821323184	151
3	1051	139.347272726881	152
3	1055	139.37270432186	153
3	1063	140.839834818328	154
3	1071	142.510401198697	155
3	1079	144.176784258881	156
3	1083	144.213999137779	157
3	1091	145.470214084882	158
3	1099	147.083049307763	159
3	1107	148.171834827093	160
3	1111	148.228128868466	161
3	1115	148.254958118946	162
3	1123	149.769839761054	163
3	1127	149.817289314849	164
3	1135	151.255961875179	165
3	1139	151.287250196271	166
3	1143	151.348323459853	167
3	1151	153.176343578615	168
3	1155	153.228776980448	169
3	1163	154.492447337091	170
3	1187	159.08626133164	171
3	1191	159.132807631935	172
3	1195	159.17023957137	173
3	1211	161.902174326755	174
3	1215	161.957969363864	175
3	1231	165.700242650071	176
3	1239	167.168046583615	177
3	1247	168.781807760362	178
3	1251	168.821696219472	179
3	1255	168.852071075557	180
3	1263	170.250229788435	181
3	1271	171.849740214243	182
3	1279	173.016646724361	183
3	1295	175.74634572731	184
3	1299	175.773406218254	185
3	1307	177.063070486102	186
3	1315	179.026591464482	187
3	1319	179.055080485331	188
3	1327	180.304974753591	189
3	1331	180.329018871675	190
3	1335	180.363479401781	191
3	1339	180.391804075722	192
3	1343	180.435077626507	193
3	1347	180.498414344138	194
3	1351	180.554081633352	195
3	1359	181.722608613516	196
3	1363	181.748547695357	197
3	1371	182.838340503104	198
3	1375	182.869405553896	199
3	1379	182.908390247949	200
3	1383	182.939811263401	201
3	1387	183.001220322272	202
3	1391	183.033537296382	203
3	1399	184.769175475578	204
3	1403	184.813193377849	205
3	1411	186.567363267119	206
3	1415	186.619927607966	207
3	1423	187.990879737447	208
3	1427	188.016347326626	209
3	1431	188.041147537148	210
3	1439	189.158648151071	211
3	1447	190.830146307208	212
3	1455	192.528770152001	213
3	1471	195.180666274259	214
3	1475	195.213617578707	215
3	1483	196.985316325718	216
3	1491	198.248669376738	217
3	1495	198.285116881392	218
3	1503	200.071897252989	219
3	1507	200.117130358178	220
3	1515	201.823545712248	221
3	1519	201.888831651966	222
3	1523	201.919031556582	223
3	1531	203.056925300836	224
3	1539	204.372373108513	225
3	1543	204.402544656687	226
3	1551	205.826420860078	227
3	1555	205.882839144599	228
3	1559	205.905642196808	229
3	1563	205.947968783474	230
3	1567	205.980970419281	231
3	1575	207.814808890937	232
3	1579	207.85399267949	233
3	1583	207.877340697379	234
3	1587	207.905965375801	235
3	1591	207.941378338296	236
3	1599	209.79255568257	237
3	1603	209.814911432035	238
3	1611	211.794571158286	239
3	1615	211.83793173531	240
3	1619	211.862107295207	241
3	1623	211.917932009744	242
3	1631	213.764415570781	243
3	1639	214.924662235174	244
3	1647	216.212822936708	245
3	1651	216.247623140669	246
3	1655	216.282264235491	247
3	1663	217.269209370722	248
3	1667	217.291195602546	249
3	1671	217.332548914226	250
3	1675	217.363981232627	251
3	1691	220.261325086346	252
3	1699	221.398821289802	253
3	1703	221.438910438594	254
3	1707	221.473627790358	255
3	1711	221.500926774008	256
3	1719	223.127599269526	257
3	1727	224.574074297009	258
3	1731	224.620491649087	259
3	1735	224.667681489121	260
3	1743	226.027040325631	261
3	1747	226.086386400192	262
3	1755	227.688451582133	263
3	1759	227.726954068797	264
3	1767	229.285879107005	265
3	1775	230.911689597074	266
3	1779	230.96689542039	267
3	1783	230.994423074426	268
3	1791	232.06847943729	269
3	1795	232.099656600807	270
3	1811	234.919051899771	271
3	1819	235.996298559652	272
3	1827	237.228515626574	273
3	1831	237.24915783641	274
4	12	0.307023831605	0
4	20	1.789446121766	1
4	28	3.581293208786	2
4	36	4.604461498147	3
4	68	6.579485742194	4
4	88	8.233095220567	5
4	96	9.759180152146	6
4	128	11.01637019103	7
4	148	12.586265547469	8
4	160	13.903567346395	9
4	168	15.434169417045	10
4	176	17.193898034953	11
4	184	18.766696495827	12
4	192	20.046062333012	13
4	200	21.348155717292	14
4	212	22.910207973248	15
4	220	24.021681873088	16
4	232	25.41360178624	17
4	244	27.356973000863	18
4	252	28.497498606078	19
4	260	30.415814686173	20
4	276	32.314326942946	21
4	284	33.602048047189	22
4	292	34.832773764052	23
4	300	36.808080634776	24
4	308	38.295803136803	25
4	316	39.754791410409	26
4	324	41.073657459721	27
4	348	42.192779132055	28
4	364	43.273742469904	29
4	372	44.403974068107	30
4	380	45.71951844944	31
4	392	47.229531243159	32
4	412	49.175261554445	33
4	424	50.71601206992	34
4	436	52.057726132557	35
4	444	53.275311486334	36
4	460	54.830138232815	37
4	468	56.599673663136	38
4	480	57.895530313934	39
4	488	59.288712762252	40
4	496	61.158966466773	41
4	504	62.461698593866	42
4	512	63.98177226354	43
4	528	65.832758872806	44
4	544	66.89226802969	45
4	556	68.608366025716	46
4	568	70.493568948291	47
4	576	71.83468563312	48
4	588	73.061293570976	49
4	604	74.929046641902	50
4	612	75.980834854919	51
4	620	77.889657774185	52
4	628	79.559950844766	53
4	640	81.638565178817	54
4	648	83.327724491738	55
4	660	84.858128215047	56
4	668	85.884224119799	57
4	680	87.07806173938	58
4	688	88.859936327484	59
4	696	90.474137965957	60
4	704	91.555275518015	61
4	716	92.624601701138	62
4	724	94.556339176494	63
4	732	95.548524703859	64
4	748	97.175302430569	65
4	764	98.881098904869	66
4	780	99.997776033819	67
4	792	101.703903056966	68
4	800	103.650319350015	69
4	816	105.652369488805	70
4	824	107.302249888717	71
4	832	109.237899950398	72
4	840	110.474256902133	73
4	848	111.623144881019	74
4	860	113.497149227782	75
4	872	114.644155219008	76
4	884	116.194996356189	77
4	896	117.726858747429	78
4	904	118.702411437948	79
4	916	120.100436748428	80
4	924	121.615470106234	81
4	932	123.558969599442	82
4	944	124.785729992471	83
4	952	125.816672080802	84
4	960	127.406912183093	85
4	972	128.782231956028	86
4	980	130.260020084134	87
4	1004	131.974706710833	88
4	1012	133.210362279171	89
4	1020	134.793233945266	90
4	1028	136.291056064878	91
4	1036	137.880707839103	92
4	1056	139.38270432186	93
4	1064	140.849834818328	94
4	1072	142.520401198697	95
4	1084	144.223999137779	96
4	1092	145.480214084882	97
4	1100	147.093049307763	98
4	1116	148.264958118946	99
4	1128	149.827289314849	100
4	1144	151.358323459853	101
4	1156	153.238776980448	102
4	1164	154.502447337091	103
4	1172	156.027981782451	104
4	1180	157.491035536439	105
4	1196	159.18023957137	106
4	1204	160.112250148313	107
4	1216	161.967969363864	108
4	1224	163.798378569687	109
4	1232	165.710242650071	110
4	1240	167.178046583615	111
4	1256	168.862071075557	112
4	1264	170.260229788435	113
4	1272	171.859740214243	114
4	1280	173.026646724361	115
4	1288	174.545986949267	116
4	1300	175.783406218254	117
4	1308	177.073070486102	118
4	1320	179.065080485331	119
4	1352	180.564081633352	120
4	1364	181.758547695357	121
4	1392	183.043537296382	122
4	1404	184.823193377849	123
4	1416	186.629927607966	124
4	1432	188.051147537148	125
4	1440	189.168648151071	126
4	1448	190.840146307208	127
4	1456	192.538770152001	128
4	1464	194.083410070537	129
4	1476	195.223617578707	130
4	1484	196.995316325718	131
4	1496	198.295116881392	132
4	1508	200.127130358178	133
4	1524	201.929031556582	134
4	1532	203.066925300836	135
4	1544	204.412544656687	136
4	1568	205.990970419281	137
4	1592	207.951378338296	138
4	1604	209.824911432035	139
4	1624	211.927932009744	140
4	1632	213.774415570781	141
4	1640	214.934662235174	142
4	1656	216.292264235491	143
4	1676	217.373981232627	144
4	1684	219.173651110644	145
4	1692	220.271325086346	146
4	1712	221.510926774008	147
4	1720	223.137599269526	148
4	1736	224.677681489121	149
4	1748	226.096386400192	150
4	1760	227.736954068797	151
4	1768	229.295879107005	152
4	1784	231.004423074426	153
4	1796	232.109656600807	154
4	1804	233.453335135915	155
4	1812	234.929051899771	156
4	1820	236.006298559652	157
4	1832	237.25915783641	158
4	1840	238.467894673119	159
5	23	3.535237760586	0
5	39	6.330892914061	1
5	71	8.061148175803	2
5	99	10.781914585815	3
5	151	13.778910513692	4
5	163	15.403384666721	5
5	203	22.821599418934	6
5	215	23.961234553776	7
5	223	25.325694839892	8
5	235	27.28039473798	9
5	247	28.435665565939	10
5	255	30.379696197562	11
5	263	32.222152008109	12
5	351	43.120765807508	13
5	367	44.322677598443	14
5	375	45.680151302307	15
5	395	49.045897914745	16
5	415	50.617308665392	17
5	439	53.21388894677	18
5	463	56.538728194879	19
5	471	57.780964736141	20
5	491	61.097065219173	21
5	499	62.415322806221	22
5	507	63.919298854801	23
5	547	68.522186889986	24
5	591	74.811408693199	25
5	607	75.937105966569	26
5	631	81.491999773694	27
5	651	84.751973287496	28
5	707	92.510260234426	29
5	735	97.046961150672	30
5	767	99.874902557384	31
5	795	103.572464155863	32
5	803	105.55642503377	33
5	819	107.244081508527	34
5	827	109.187876685745	35
5	835	110.387071017611	36
5	863	114.567512277862	37
5	907	119.994160123722	38
5	919	121.57559544713	39
5	927	123.517804995806	40
5	955	127.35738212348	41
5	963	128.703839782813	42
5	1007	133.161529425868	43
5	1039	139.244604860625	44
5	1059	140.759231596049	45
5	1067	142.48332024494	46
5	1075	144.138720053641	47
5	1103	148.146057752476	48
5	1119	149.701400304338	49
5	1207	161.870755971721	50
5	1227	165.66211381738	51
5	1235	167.141477649118	52
5	1275	172.985059039195	53
5	1291	175.710622977807	54
5	1311	178.992503406639	55
5	1355	181.677540463668	56
5	1395	184.738131373922	57
5	1435	189.108772685998	58
5	1443	190.794087065447	59
5	1467	195.138571141336	60
5	1479	196.931937096209	61
5	1535	204.345015626677	62
5	1547	205.794454190891	63
5	1607	211.738857612536	64
5	1627	213.72478655199	65
5	1635	214.904561142394	66
5	1659	217.230044697055	67
5	1687	220.216646855275	68
5	1695	221.354233538479	69
5	1715	223.096510673802	70
5	1723	224.530365616778	71
5	1739	225.976540986603	72
5	1771	230.866398282556	73
5	1787	232.040502137036	74
5	1815	235.948811545271	75
6	33	4.575280005392	0
6	93	9.716675357997	1
6	181	18.745650357207	2
6	189	20.000051263203	3
6	197	21.281273658526	4
6	281	33.552420064913	5
6	289	34.780136779293	6
6	297	36.757299062201	7
6	313	39.732128545356	8
6	321	41.04354776322	9
6	385	47.139187438272	10
6	485	59.2527947174	11
6	533	66.816115673794	12
6	561	70.363841381166	13
6	581	72.987056219149	14
6	617	77.865656548135	15
6	645	83.296578403852	16
6	665	85.843053231119	17
6	673	87.001893410751	18
6	685	88.83115478778	19
6	701	91.529431520109	20
6	721	94.498790262452	21
6	729	95.503545837076	22
6	785	101.613467958144	23
6	845	111.583978833576	24
6	901	118.674949108651	25
6	977	130.233222217977	26
6	1017	134.772996848123	27
6	1025	136.256364296356	28
6	1133	151.241969104682	29
6	1169	155.997515673742	30
6	1177	157.470298689303	31
6	1201	160.087633925321	32
6	1221	163.777384770826	33
6	1285	174.52565939409	34
6	1461	194.057138426714	35
6	1513	201.808963595638	36
6	1597	209.77717175971	37
6	1681	219.134828773143	38
6	1753	227.675764516615	39
6	1801	233.432516971315	40
6	1825	237.205248852525	41
6	1837	238.44743577289	42
7	95	9.749180152146	0
7	183	18.756696495827	1
7	199	21.338155717292	2
7	291	34.822773764052	3
7	299	36.798080634776	4
7	323	41.063657459721	5
7	487	59.278712762252	6
7	619	77.879657774185	7
7	647	83.317724491738	8
7	667	85.874224119799	9
7	687	88.849936327484	10
7	723	94.546339176494	11
7	731	95.538524703859	12
7	903	118.692411437948	13
7	979	130.250020084134	14
7	1019	134.783233945266	15
7	1171	156.017981782451	16
7	1179	157.481035536439	17
7	1203	160.102250148313	18
7	1223	163.788378569687	19
7	1287	174.535986949267	20
7	1463	194.073410070537	21
7	1683	219.163651110644	22
7	1803	233.443335135915	23
7	1839	238.457894673119	24

