version 2
run General-4-20231008-06:14:47-15473
attr configname General
attr datetime 20231008-06:14:47
attr experiment General
attr inifile omnetpp.ini
attr iterationvars ""
attr iterationvarsf ""
attr measurement ""
attr network Network1
attr processid 15473
attr repetition 4
attr replication #4
attr resultdir results
attr runnumber 4
attr seedset 4
param Network1.node[*].transmissionTime "uniform(1s, 2s)"
param Network1.node[*].delayTime "uniform(0.01s, 0.2s)"
param Network1.node[*].processingTime exponential(0.01s)
param Network1.node[*].lossProbability 0.0
param Reliability.node[*].transmissionTime "uniform(1s, 2s)"
param Reliability.node[*].delayTime "uniform(0.01s, 0.2s)"
param Reliability.node[*].processingTime exponential(0.01s)
param Reliability.node[*].lossProbability 0.0

vector 0 Network1.node[0] txVector ETV
vector 1 Network1.node[1] txVector ETV
vector 2 Network1.node[3] txVector ETV
vector 3 Network1.node[2] txVector ETV
vector 4 Network1.node[4] txVector ETV
vector 5 Network1.node[5] rxVector ETV
0	1	0.193735669288	0
0	19	2.094357123985	1
0	37	3.727320223502	2
0	55	5.371234486732	3
0	73	7.237117241756	4
0	91	8.417837836002	5
0	109	9.885588189042	6
0	127	10.961294564339	7
0	145	12.808016836098	8
0	163	13.908397263069	9
0	181	15.215409934674	10
0	199	16.451561600822	11
0	217	17.822667783746	12
0	235	19.570162597266	13
0	253	21.501851618444	14
0	271	23.085395150041	15
0	289	24.719964644328	16
0	307	26.590356785726	17
0	325	27.709933473651	18
0	343	28.974193982935	19
0	361	30.458598116335	20
0	379	31.552678758899	21
0	397	33.02021123042	22
0	415	34.425970444378	23
0	433	36.289317566824	24
0	451	37.379909927879	25
0	469	39.117020803426	26
0	487	40.530061846754	27
0	505	41.820901699985	28
0	523	43.115344782049	29
0	541	44.980439238172	30
0	559	46.76504997389	31
0	577	48.505690086322	32
0	595	50.072170120586	33
0	613	51.564486048106	34
0	631	53.095412915494	35
0	649	55.006169211041	36
0	667	56.751468419252	37
0	685	57.952450722611	38
0	703	59.010032061642	39
0	721	60.760965493429	40
0	739	62.603573991838	41
0	757	64.394078333085	42
0	775	65.835537853572	43
0	793	67.052356954818	44
0	811	68.659863711954	45
0	829	69.757899557394	46
0	847	71.647555396347	47
0	865	73.642047057082	48
0	883	75.12613506258	49
0	901	76.159561922695	50
0	919	77.208904078152	51
0	937	78.980602184698	52
0	955	80.953596365327	53
0	973	82.925168409167	54
0	991	84.03924820704	55
0	1009	85.363009523056	56
0	1027	86.418818365471	57
0	1045	88.325380198113	58
0	1063	89.900524340957	59
0	1081	91.627606138508	60
0	1099	93.615792558915	61
0	1117	95.473905360946	62
0	1135	96.803952003751	63
0	1153	98.385265822677	64
0	1171	99.951826799816	65
0	1189	101.398160420979	66
0	1207	102.420569696852	67
0	1225	103.638365391099	68
0	1243	105.215230187557	69
0	1261	106.229697414364	70
0	1279	107.991307378437	71
0	1297	109.218169658834	72
0	1315	110.92574118885	73
0	1333	112.598188378772	74
0	1351	114.570241592515	75
0	1369	116.341417265746	76
0	1387	118.200259457265	77
0	1405	119.516634226467	78
0	1423	120.540381650364	79
0	1441	122.222563192638	80
0	1459	123.616592545685	81
0	1477	124.701117708505	82
0	1495	126.115502074518	83
0	1513	127.237217533792	84
0	1531	128.980279786204	85
0	1549	130.896609627799	86
0	1567	132.613994931494	87
0	1585	134.174037258531	88
0	1603	135.47550045994	89
0	1621	136.959431405802	90
0	1639	138.479442617082	91
0	1657	139.816524939303	92
0	1675	141.058948488132	93
0	1693	142.95995655788	94
0	1711	144.405168125796	95
0	1729	146.029507392709	96
0	1747	147.762713457848	97
0	1765	148.764469770174	98
0	1783	150.550234614796	99
0	1801	152.458491900627	100
0	1819	153.94052709096	101
0	1837	155.725484425126	102
0	1855	157.434232785523	103
0	1873	158.851184291689	104
0	1891	160.098903465707	105
0	1909	161.50315438832	106
0	1927	163.058138547855	107
0	1945	164.74030707606	108
0	1963	165.881382036879	109
0	1981	167.236087444862	110
0	1999	168.520994617296	111
0	2017	169.903722622357	112
0	2035	171.785799748189	113
0	2053	173.532027013757	114
0	2071	175.306629544514	115
0	2089	176.680808881455	116
0	2107	178.172008295468	117
0	2125	179.501192372217	118
0	2143	181.441950630787	119
0	2161	182.682413510437	120
0	2179	184.329369079479	121
0	2197	185.976625939756	122
0	2215	187.060845240643	123
0	2233	188.677233156673	124
0	2251	189.707886032918	125
0	2269	191.457689912682	126
0	2287	193.177146305255	127
0	2305	194.717478719931	128
0	2323	196.002989465296	129
0	2341	197.693429604796	130
0	2359	199.244524665567	131
0	2377	201.157397751155	132
0	2395	202.641489509417	133
0	2413	203.678844690247	134
0	2431	205.645159513847	135
0	2449	206.9188226612	136
0	2467	208.885490511003	137
0	2485	210.849624469801	138
0	2503	211.954463603133	139
0	2521	213.67699825407	140
0	2539	215.28405284455	141
0	2557	216.63443635513	142
0	2575	217.762195564498	143
0	2593	219.03699531841	144
0	2611	220.810642007663	145
0	2629	222.436747711076	146
0	2647	223.905663718626	147
0	2665	225.163419247529	148
0	2683	226.356249503017	149
0	2701	227.744666297379	150
0	2719	228.778344841599	151
0	2737	230.287151405746	152
0	2755	231.976757640643	153
0	2773	233.129377370626	154
0	2791	235.089479040979	155
0	2809	236.398350677845	156
0	2827	237.744730732563	157
0	2845	239.539870846477	158
1	3	0.205631491707	0
1	3	0.205631491707	1
1	3	0.205631491707	2
1	21	2.104408849027	3
1	21	2.104408849027	4
1	21	2.104408849027	5
1	39	3.753983592635	6
1	39	3.753983592635	7
1	39	3.753983592635	8
1	57	5.399783276304	9
1	57	5.399783276304	10
1	57	5.399783276304	11
1	75	7.250916914621	12
1	75	7.250916914621	13
1	75	7.250916914621	14
1	93	8.432281450164	15
1	93	8.432281450164	16
1	93	8.432281450164	17
1	111	9.907158706022	18
1	111	9.907158706022	19
1	111	9.907158706022	20
1	129	10.984516166491	21
1	129	10.984516166491	22
1	129	10.984516166491	23
1	147	12.818680920138	24
1	147	12.818680920138	25
1	147	12.818680920138	26
1	165	13.936303776973	27
1	165	13.936303776973	28
1	165	13.936303776973	29
1	183	15.231977314668	30
1	183	15.231977314668	31
1	183	15.231977314668	32
1	201	16.463034147157	33
1	201	16.463034147157	34
1	201	16.463034147157	35
1	219	17.839365432494	36
1	219	17.839365432494	37
1	219	17.839365432494	38
1	237	19.581107261572	39
1	237	19.581107261572	40
1	237	19.581107261572	41
1	255	21.524829437098	42
1	255	21.524829437098	43
1	255	21.524829437098	44
1	273	23.102163708866	45
1	273	23.102163708866	46
1	273	23.102163708866	47
1	291	24.752801470849	48
1	291	24.752801470849	49
1	291	24.752801470849	50
1	309	26.602931302488	51
1	309	26.602931302488	52
1	309	26.602931302488	53
1	327	27.725421621009	54
1	327	27.725421621009	55
1	327	27.725421621009	56
1	345	28.989389511627	57
1	345	28.989389511627	58
1	345	28.989389511627	59
1	363	30.471687817995	60
1	363	30.471687817995	61
1	363	30.471687817995	62
1	381	31.609417226162	63
1	381	31.609417226162	64
1	381	31.609417226162	65
1	399	33.065861338804	66
1	399	33.065861338804	67
1	399	33.065861338804	68
1	417	34.444828893975	69
1	417	34.444828893975	70
1	417	34.444828893975	71
1	435	36.306815047024	72
1	435	36.306815047024	73
1	435	36.306815047024	74
1	453	37.407518820145	75
1	453	37.407518820145	76
1	453	37.407518820145	77
1	471	39.127666902324	78
1	471	39.127666902324	79
1	471	39.127666902324	80
1	489	40.55375927036	81
1	489	40.55375927036	82
1	489	40.55375927036	83
1	507	41.839418056632	84
1	507	41.839418056632	85
1	507	41.839418056632	86
1	525	43.138446093664	87
1	525	43.138446093664	88
1	525	43.138446093664	89
1	543	44.990478039729	90
1	543	44.990478039729	91
1	543	44.990478039729	92
1	561	46.782081957368	93
1	561	46.782081957368	94
1	561	46.782081957368	95
1	579	48.543904914158	96
1	579	48.543904914158	97
1	579	48.543904914158	98
1	597	50.121511547822	99
1	597	50.121511547822	100
1	597	50.121511547822	101
1	615	51.57449961602	102
1	615	51.57449961602	103
1	615	51.57449961602	104
1	633	53.122519986458	105
1	633	53.122519986458	106
1	633	53.122519986458	107
1	651	55.026900899826	108
1	651	55.026900899826	109
1	651	55.026900899826	110
1	669	56.811074317577	111
1	669	56.811074317577	112
1	669	56.811074317577	113
1	687	57.965898388527	114
1	687	57.965898388527	115
1	687	57.965898388527	116
1	705	59.021409859916	117
1	705	59.021409859916	118
1	705	59.021409859916	119
1	723	60.786270554082	120
1	723	60.786270554082	121
1	723	60.786270554082	122
1	741	62.626349256906	123
1	741	62.626349256906	124
1	741	62.626349256906	125
1	759	64.44126631785	126
1	759	64.44126631785	127
1	759	64.44126631785	128
1	777	65.852410653646	129
1	777	65.852410653646	130
1	777	65.852410653646	131
1	795	67.080365721743	132
1	795	67.080365721743	133
1	795	67.080365721743	134
1	813	68.6806476403	135
1	813	68.6806476403	136
1	813	68.6806476403	137
1	831	69.768492937293	138
1	831	69.768492937293	139
1	831	69.768492937293	140
1	849	71.674172116934	141
1	849	71.674172116934	142
1	849	71.674172116934	143
1	867	73.652506770817	144
1	867	73.652506770817	145
1	867	73.652506770817	146
1	885	75.137243500766	147
1	885	75.137243500766	148
1	885	75.137243500766	149
1	903	76.211065955437	150
1	903	76.211065955437	151
1	903	76.211065955437	152
1	921	77.233778811292	153
1	921	77.233778811292	154
1	921	77.233778811292	155
1	939	78.996014515681	156
1	939	78.996014515681	157
1	939	78.996014515681	158
1	957	80.965744807724	159
1	957	80.965744807724	160
1	957	80.965744807724	161
1	975	82.961749485199	162
1	975	82.961749485199	163
1	975	82.961749485199	164
1	993	84.052822848857	165
1	993	84.052822848857	166
1	993	84.052822848857	167
1	1011	85.376118288639	168
1	1011	85.376118288639	169
1	1011	85.376118288639	170
1	1029	86.433621410262	171
1	1029	86.433621410262	172
1	1029	86.433621410262	173
1	1047	88.338617117964	174
1	1047	88.338617117964	175
1	1047	88.338617117964	176
1	1065	89.917284599252	177
1	1065	89.917284599252	178
1	1065	89.917284599252	179
1	1083	91.640043956305	180
1	1083	91.640043956305	181
1	1083	91.640043956305	182
1	1101	93.63460391286	183
1	1101	93.63460391286	184
1	1101	93.63460391286	185
1	1119	95.506287198224	186
1	1119	95.506287198224	187
1	1119	95.506287198224	188
1	1137	96.830785237828	189
1	1137	96.830785237828	190
1	1137	96.830785237828	191
1	1155	98.402241233882	192
1	1155	98.402241233882	193
1	1155	98.402241233882	194
1	1173	99.974951813792	195
1	1173	99.974951813792	196
1	1173	99.974951813792	197
1	1191	101.426675050947	198
1	1191	101.426675050947	199
1	1191	101.426675050947	200
1	1209	102.434405115171	201
1	1209	102.434405115171	202
1	1209	102.434405115171	203
1	1227	103.648541888943	204
1	1227	103.648541888943	205
1	1227	103.648541888943	206
1	1245	105.229826502302	207
1	1245	105.229826502302	208
1	1245	105.229826502302	209
1	1263	106.24710821019	210
1	1263	106.24710821019	211
1	1263	106.24710821019	212
1	1281	108.008943064823	213
1	1281	108.008943064823	214
1	1281	108.008943064823	215
1	1299	109.235643504943	216
1	1299	109.235643504943	217
1	1299	109.235643504943	218
1	1317	110.949610632839	219
1	1317	110.949610632839	220
1	1317	110.949610632839	221
1	1335	112.60959687292	222
1	1335	112.60959687292	223
1	1335	112.60959687292	224
1	1353	114.582230068947	225
1	1353	114.582230068947	226
1	1353	114.582230068947	227
1	1371	116.359462401158	228
1	1371	116.359462401158	229
1	1371	116.359462401158	230
1	1389	118.211802326438	231
1	1389	118.211802326438	232
1	1389	118.211802326438	233
1	1407	119.542329457765	234
1	1407	119.542329457765	235
1	1407	119.542329457765	236
1	1425	120.559730532427	237
1	1425	120.559730532427	238
1	1425	120.559730532427	239
1	1443	122.234260042333	240
1	1443	122.234260042333	241
1	1443	122.234260042333	242
1	1461	123.652324378727	243
1	1461	123.652324378727	244
1	1461	123.652324378727	245
1	1479	124.771373418258	246
1	1479	124.771373418258	247
1	1479	124.771373418258	248
1	1497	126.157924771737	249
1	1497	126.157924771737	250
1	1497	126.157924771737	251
1	1515	127.252585540372	252
1	1515	127.252585540372	253
1	1515	127.252585540372	254
1	1533	129.027684957948	255
1	1533	129.027684957948	256
1	1533	129.027684957948	257
1	1551	130.917453580278	258
1	1551	130.917453580278	259
1	1551	130.917453580278	260
1	1569	132.654327674805	261
1	1569	132.654327674805	262
1	1569	132.654327674805	263
1	1587	134.186826690432	264
1	1587	134.186826690432	265
1	1587	134.186826690432	266
1	1605	135.501795250958	267
1	1605	135.501795250958	268
1	1605	135.501795250958	269
1	1623	136.970631591693	270
1	1623	136.970631591693	271
1	1623	136.970631591693	272
1	1641	138.503772310077	273
1	1641	138.503772310077	274
1	1641	138.503772310077	275
1	1659	139.837120132412	276
1	1659	139.837120132412	277
1	1659	139.837120132412	278
1	1677	141.081147289554	279
1	1677	141.081147289554	280
1	1677	141.081147289554	281
1	1695	142.971146202843	282
1	1695	142.971146202843	283
1	1695	142.971146202843	284
1	1713	144.418634130379	285
1	1713	144.418634130379	286
1	1713	144.418634130379	287
1	1731	146.078481954016	288
1	1731	146.078481954016	289
1	1731	146.078481954016	290
1	1749	147.780241693735	291
1	1749	147.780241693735	292
1	1749	147.780241693735	293
1	1767	148.780987116644	294
1	1767	148.780987116644	295
1	1767	148.780987116644	296
1	1785	150.562414161934	297
1	1785	150.562414161934	298
1	1785	150.562414161934	299
1	1803	152.477763648994	300
1	1803	152.477763648994	301
1	1803	152.477763648994	302
1	1821	153.96066840064	303
1	1821	153.96066840064	304
1	1821	153.96066840064	305
1	1839	155.744059754865	306
1	1839	155.744059754865	307
1	1839	155.744059754865	308
1	1857	157.447506463301	309
1	1857	157.447506463301	310
1	1857	157.447506463301	311
1	1875	158.861656623915	312
1	1875	158.861656623915	313
1	1875	158.861656623915	314
1	1893	160.12105154997	315
1	1893	160.12105154997	316
1	1893	160.12105154997	317
1	1911	161.513949619435	318
1	1911	161.513949619435	319
1	1911	161.513949619435	320
1	1929	163.081741825149	321
1	1929	163.081741825149	322
1	1929	163.081741825149	323
1	1947	164.750957933248	324
1	1947	164.750957933248	325
1	1947	164.750957933248	326
1	1965	165.900113760809	327
1	1965	165.900113760809	328
1	1965	165.900113760809	329
1	1983	167.255521989931	330
1	1983	167.255521989931	331
1	1983	167.255521989931	332
1	2001	168.561569410606	333
1	2001	168.561569410606	334
1	2001	168.561569410606	335
1	2019	169.919953667502	336
1	2019	169.919953667502	337
1	2019	169.919953667502	338
1	2037	171.79998160595	339
1	2037	171.79998160595	340
1	2037	171.79998160595	341
1	2055	173.548013615106	342
1	2055	173.548013615106	343
1	2055	173.548013615106	344
1	2073	175.323909836675	345
1	2073	175.323909836675	346
1	2073	175.323909836675	347
1	2091	176.696265752367	348
1	2091	176.696265752367	349
1	2091	176.696265752367	350
1	2109	178.182718608039	351
1	2109	178.182718608039	352
1	2109	178.182718608039	353
1	2127	179.526779536657	354
1	2127	179.526779536657	355
1	2127	179.526779536657	356
1	2145	181.457248298579	357
1	2145	181.457248298579	358
1	2145	181.457248298579	359
1	2163	182.704359557815	360
1	2163	182.704359557815	361
1	2163	182.704359557815	362
1	2181	184.33995154234	363
1	2181	184.33995154234	364
1	2181	184.33995154234	365
1	2199	185.994764523102	366
1	2199	185.994764523102	367
1	2199	185.994764523102	368
1	2217	187.081095526652	369
1	2217	187.081095526652	370
1	2217	187.081095526652	371
1	2235	188.695147092819	372
1	2235	188.695147092819	373
1	2235	188.695147092819	374
1	2253	189.720632285324	375
1	2253	189.720632285324	376
1	2253	189.720632285324	377
1	2271	191.482298470559	378
1	2271	191.482298470559	379
1	2271	191.482298470559	380
1	2289	193.18829146553	381
1	2289	193.18829146553	382
1	2289	193.18829146553	383
1	2307	194.734660654128	384
1	2307	194.734660654128	385
1	2307	194.734660654128	386
1	2325	196.020363963095	387
1	2325	196.020363963095	388
1	2325	196.020363963095	389
1	2343	197.721872166076	390
1	2343	197.721872166076	391
1	2343	197.721872166076	392
1	2361	199.263217714898	393
1	2361	199.263217714898	394
1	2361	199.263217714898	395
1	2379	201.181082554079	396
1	2379	201.181082554079	397
1	2379	201.181082554079	398
1	2397	202.657659157616	399
1	2397	202.657659157616	400
1	2397	202.657659157616	401
1	2415	203.727301650597	402
1	2415	203.727301650597	403
1	2415	203.727301650597	404
1	2433	205.689276255538	405
1	2433	205.689276255538	406
1	2433	205.689276255538	407
1	2451	206.935079049603	408
1	2451	206.935079049603	409
1	2451	206.935079049603	410
1	2469	208.898286754729	411
1	2469	208.898286754729	412
1	2469	208.898286754729	413
1	2487	210.860792722966	414
1	2487	210.860792722966	415
1	2487	210.860792722966	416
1	2505	211.986951757913	417
1	2505	211.986951757913	418
1	2505	211.986951757913	419
1	2523	213.690547148547	420
1	2523	213.690547148547	421
1	2523	213.690547148547	422
1	2541	215.30231420398	423
1	2541	215.30231420398	424
1	2541	215.30231420398	425
1	2559	216.645193728232	426
1	2559	216.645193728232	427
1	2559	216.645193728232	428
1	2577	217.775059478136	429
1	2577	217.775059478136	430
1	2577	217.775059478136	431
1	2595	219.050404294532	432
1	2595	219.050404294532	433
1	2595	219.050404294532	434
1	2613	220.841019443951	435
1	2613	220.841019443951	436
1	2613	220.841019443951	437
1	2631	222.459631687173	438
1	2631	222.459631687173	439
1	2631	222.459631687173	440
1	2649	223.918314431442	441
1	2649	223.918314431442	442
1	2649	223.918314431442	443
1	2667	225.186083557353	444
1	2667	225.186083557353	445
1	2667	225.186083557353	446
1	2685	226.369820342411	447
1	2685	226.369820342411	448
1	2685	226.369820342411	449
1	2703	227.775186828202	450
1	2703	227.775186828202	451
1	2703	227.775186828202	452
1	2721	228.799868184384	453
1	2721	228.799868184384	454
1	2721	228.799868184384	455
1	2739	230.303046349569	456
1	2739	230.303046349569	457
1	2739	230.303046349569	458
1	2757	232.004205821145	459
1	2757	232.004205821145	460
1	2757	232.004205821145	461
1	2775	233.147360244245	462
1	2775	233.147360244245	463
1	2775	233.147360244245	464
1	2793	235.107775358704	465
1	2793	235.107775358704	466
1	2793	235.107775358704	467
1	2811	236.408585326841	468
1	2811	236.408585326841	469
1	2811	236.408585326841	470
1	2829	237.759040502174	471
1	2829	237.759040502174	472
1	2829	237.759040502174	473
1	2847	239.553402855667	474
1	2847	239.553402855667	475
1	2847	239.553402855667	476
2	7	0.227595799025	0
2	7	0.227595799025	1
2	7	0.227595799025	2
2	30	2.155392780518	3
2	30	2.155392780518	4
2	30	2.155392780518	5
2	43	3.779415693836	6
2	43	3.779415693836	7
2	43	3.779415693836	8
2	66	5.437520623682	9
2	66	5.437520623682	10
2	66	5.437520623682	11
2	79	7.265973637265	12
2	79	7.265973637265	13
2	79	7.265973637265	14
2	98	8.452087898864	15
2	98	8.452087898864	16
2	98	8.452087898864	17
2	119	9.934889345122	18
2	119	9.934889345122	19
2	119	9.934889345122	20
2	133	10.995400781085	21
2	133	10.995400781085	22
2	133	10.995400781085	23
2	151	12.830064197847	24
2	151	12.830064197847	25
2	151	12.830064197847	26
2	173	13.964864004489	27
2	173	13.964864004489	28
2	173	13.964864004489	29
2	187	15.246289532702	30
2	187	15.246289532702	31
2	187	15.246289532702	32
2	210	16.496305164901	33
2	210	16.496305164901	34
2	210	16.496305164901	35
2	224	17.85882834065	36
2	224	17.85882834065	37
2	224	17.85882834065	38
2	242	19.605503944945	39
2	242	19.605503944945	40
2	242	19.605503944945	41
2	259	21.542484521445	42
2	259	21.542484521445	43
2	259	21.542484521445	44
2	277	23.115560999811	45
2	277	23.115560999811	46
2	277	23.115560999811	47
2	296	24.777193435719	48
2	296	24.777193435719	49
2	296	24.777193435719	50
2	313	26.624585917925	51
2	313	26.624585917925	52
2	313	26.624585917925	53
2	332	27.770054731074	54
2	332	27.770054731074	55
2	332	27.770054731074	56
2	349	29.001036909124	57
2	349	29.001036909124	58
2	349	29.001036909124	59
2	375	30.510843783687	60
2	375	30.510843783687	61
2	375	30.510843783687	62
2	385	31.621465465446	63
2	385	31.621465465446	64
2	385	31.621465465446	65
2	408	33.095431514371	66
2	408	33.095431514371	67
2	408	33.095431514371	68
2	422	34.461990744967	69
2	422	34.461990744967	70
2	422	34.461990744967	71
2	439	36.323967055325	72
2	439	36.323967055325	73
2	439	36.323967055325	74
2	458	37.423263993605	75
2	458	37.423263993605	76
2	458	37.423263993605	77
2	475	39.138105360952	78
2	475	39.138105360952	79
2	475	39.138105360952	80
2	493	40.564863171134	81
2	493	40.564863171134	82
2	493	40.564863171134	83
2	512	41.858435727138	84
2	512	41.858435727138	85
2	512	41.858435727138	86
2	529	43.154340400612	87
2	529	43.154340400612	88
2	529	43.154340400612	89
2	548	45.005003250307	90
2	548	45.005003250307	91
2	548	45.005003250307	92
2	565	46.797670830061	93
2	565	46.797670830061	94
2	565	46.797670830061	95
2	584	48.566997987815	96
2	584	48.566997987815	97
2	584	48.566997987815	98
2	601	50.135468746788	99
2	601	50.135468746788	100
2	601	50.135468746788	101
2	619	51.588411569456	102
2	619	51.588411569456	103
2	619	51.588411569456	104
2	637	53.135398699452	105
2	637	53.135398699452	106
2	637	53.135398699452	107
2	655	55.04365536248	108
2	655	55.04365536248	109
2	655	55.04365536248	110
2	674	56.829326537223	111
2	674	56.829326537223	112
2	674	56.829326537223	113
2	691	57.978823492639	114
2	691	57.978823492639	115
2	691	57.978823492639	116
2	710	59.040727564668	117
2	710	59.040727564668	118
2	710	59.040727564668	119
2	727	60.803253247246	120
2	727	60.803253247246	121
2	727	60.803253247246	122
2	745	62.643119500748	123
2	745	62.643119500748	124
2	745	62.643119500748	125
2	764	64.45521768081	126
2	764	64.45521768081	127
2	764	64.45521768081	128
2	781	65.870070074989	129
2	781	65.870070074989	130
2	781	65.870070074989	131
2	799	67.094287582221	132
2	799	67.094287582221	133
2	799	67.094287582221	134
2	818	68.70861238646	135
2	818	68.70861238646	136
2	818	68.70861238646	137
2	835	69.784281737143	138
2	835	69.784281737143	139
2	835	69.784281737143	140
2	854	71.686181963349	141
2	854	71.686181963349	142
2	854	71.686181963349	143
2	871	73.676271077649	144
2	871	73.676271077649	145
2	871	73.676271077649	146
2	889	75.154606560124	147
2	889	75.154606560124	148
2	889	75.154606560124	149
2	908	76.242910629496	150
2	908	76.242910629496	151
2	908	76.242910629496	152
2	925	77.247349579674	153
2	925	77.247349579674	154
2	925	77.247349579674	155
2	947	79.02262615847	156
2	947	79.02262615847	157
2	947	79.02262615847	158
2	961	80.981953754789	159
2	961	80.981953754789	160
2	961	80.981953754789	161
2	979	82.975116202549	162
2	979	82.975116202549	163
2	979	82.975116202549	164
2	998	84.077143532942	165
2	998	84.077143532942	166
2	998	84.077143532942	167
2	1016	85.408467462448	168
2	1016	85.408467462448	169
2	1016	85.408467462448	170
2	1033	86.444269481828	171
2	1033	86.444269481828	172
2	1033	86.444269481828	173
2	1051	88.348691283278	174
2	1051	88.348691283278	175
2	1051	88.348691283278	176
2	1069	89.942914061385	177
2	1069	89.942914061385	178
2	1069	89.942914061385	179
2	1087	91.658152689822	180
2	1087	91.658152689822	181
2	1087	91.658152689822	182
2	1110	93.682918226096	183
2	1110	93.682918226096	184
2	1110	93.682918226096	185
2	1123	95.517492359322	186
2	1123	95.517492359322	187
2	1123	95.517492359322	188
2	1141	96.855406724909	189
2	1141	96.855406724909	190
2	1141	96.855406724909	191
2	1160	98.424228698947	192
2	1160	98.424228698947	193
2	1160	98.424228698947	194
2	1178	99.994349033682	195
2	1178	99.994349033682	196
2	1178	99.994349033682	197
2	1196	101.438481413294	198
2	1196	101.438481413294	199
2	1196	101.438481413294	200
2	1213	102.444626978654	201
2	1213	102.444626978654	202
2	1213	102.444626978654	203
2	1232	103.662975160126	204
2	1232	103.662975160126	205
2	1232	103.662975160126	206
2	1250	105.241313112469	207
2	1250	105.241313112469	208
2	1250	105.241313112469	209
2	1267	106.258787349441	210
2	1267	106.258787349441	211
2	1267	106.258787349441	212
2	1286	108.027082383721	213
2	1286	108.027082383721	214
2	1286	108.027082383721	215
2	1304	109.254346363312	216
2	1304	109.254346363312	217
2	1304	109.254346363312	218
2	1322	110.96882573068	219
2	1322	110.96882573068	220
2	1322	110.96882573068	221
2	1339	112.621607569164	222
2	1339	112.621607569164	223
2	1339	112.621607569164	224
2	1357	114.601196773496	225
2	1357	114.601196773496	226
2	1357	114.601196773496	227
2	1379	116.395842431863	228
2	1379	116.395842431863	229
2	1379	116.395842431863	230
2	1394	118.223185681667	231
2	1394	118.223185681667	232
2	1394	118.223185681667	233
2	1411	119.555131869419	234
2	1411	119.555131869419	235
2	1411	119.555131869419	236
2	1429	120.574215337591	237
2	1429	120.574215337591	238
2	1429	120.574215337591	239
2	1447	122.245499164536	240
2	1447	122.245499164536	241
2	1447	122.245499164536	242
2	1473	123.693563996042	243
2	1473	123.693563996042	244
2	1473	123.693563996042	245
2	1483	124.782634415083	246
2	1483	124.782634415083	247
2	1483	124.782634415083	248
2	1501	126.172591146865	249
2	1501	126.172591146865	250
2	1501	126.172591146865	251
2	1520	127.270187491001	252
2	1520	127.270187491001	253
2	1520	127.270187491001	254
2	1537	129.03993927418	255
2	1537	129.03993927418	256
2	1537	129.03993927418	257
2	1556	130.934620025126	258
2	1556	130.934620025126	259
2	1556	130.934620025126	260
2	1573	132.664535543362	261
2	1573	132.664535543362	262
2	1573	132.664535543362	263
2	1592	134.207943557292	264
2	1592	134.207943557292	265
2	1592	134.207943557292	266
2	1610	135.515462634609	267
2	1610	135.515462634609	268
2	1610	135.515462634609	269
2	1627	136.989206571693	270
2	1627	136.989206571693	271
2	1627	136.989206571693	272
2	1646	138.523998660219	273
2	1646	138.523998660219	274
2	1646	138.523998660219	275
2	1663	139.851903767278	276
2	1663	139.851903767278	277
2	1663	139.851903767278	278
2	1689	141.142496675638	279
2	1689	141.142496675638	280
2	1689	141.142496675638	281
2	1699	142.98423447757	282
2	1699	142.98423447757	283
2	1699	142.98423447757	284
2	1718	144.432444454249	285
2	1718	144.432444454249	286
2	1718	144.432444454249	287
2	1736	146.095873831069	288
2	1736	146.095873831069	289
2	1736	146.095873831069	290
2	1753	147.793167576294	291
2	1753	147.793167576294	292
2	1753	147.793167576294	293
2	1771	148.791199086533	294
2	1771	148.791199086533	295
2	1771	148.791199086533	296
2	1790	150.576599577366	297
2	1790	150.576599577366	298
2	1790	150.576599577366	299
2	1808	152.509179057168	300
2	1808	152.509179057168	301
2	1808	152.509179057168	302
2	1826	153.995684473733	303
2	1826	153.995684473733	304
2	1826	153.995684473733	305
2	1848	155.770777887006	306
2	1848	155.770777887006	307
2	1848	155.770777887006	308
2	1861	157.463518881971	309
2	1861	157.463518881971	310
2	1861	157.463518881971	311
2	1879	158.878919848474	312
2	1879	158.878919848474	313
2	1879	158.878919848474	314
2	1897	160.133052963543	315
2	1897	160.133052963543	316
2	1897	160.133052963543	317
2	1915	161.524296104734	318
2	1915	161.524296104734	319
2	1915	161.524296104734	320
2	1933	163.095980634979	321
2	1933	163.095980634979	322
2	1933	163.095980634979	323
2	1959	164.789666808093	324
2	1959	164.789666808093	325
2	1959	164.789666808093	326
2	1974	165.930023528676	327
2	1974	165.930023528676	328
2	1974	165.930023528676	329
2	1991	167.284031953855	330
2	1991	167.284031953855	331
2	1991	167.284031953855	332
2	2010	168.604715733274	333
2	2010	168.604715733274	334
2	2010	168.604715733274	335
2	2024	169.934854369031	336
2	2024	169.934854369031	337
2	2024	169.934854369031	338
2	2049	171.858022683357	339
2	2049	171.858022683357	340
2	2049	171.858022683357	341
2	2060	173.560962253677	342
2	2060	173.560962253677	343
2	2060	173.560962253677	344
2	2078	175.335411326529	345
2	2078	175.335411326529	346
2	2078	175.335411326529	347
2	2096	176.719127835618	348
2	2096	176.719127835618	349
2	2096	176.719127835618	350
2	2114	178.201771714122	351
2	2114	178.201771714122	352
2	2114	178.201771714122	353
2	2132	179.544157619324	354
2	2132	179.544157619324	355
2	2132	179.544157619324	356
2	2150	181.478552204943	357
2	2150	181.478552204943	358
2	2150	181.478552204943	359
2	2167	182.726302263377	360
2	2167	182.726302263377	361
2	2167	182.726302263377	362
2	2185	184.350904114669	363
2	2185	184.350904114669	364
2	2185	184.350904114669	365
2	2204	186.024418872579	366
2	2204	186.024418872579	367
2	2204	186.024418872579	368
2	2221	187.096777930432	369
2	2221	187.096777930432	370
2	2221	187.096777930432	371
2	2244	188.725384683045	372
2	2244	188.725384683045	373
2	2244	188.725384683045	374
2	2258	189.736742808625	375
2	2258	189.736742808625	376
2	2258	189.736742808625	377
2	2275	191.497146358217	378
2	2275	191.497146358217	379
2	2275	191.497146358217	380
2	2301	193.235031937906	381
2	2301	193.235031937906	382
2	2301	193.235031937906	383
2	2312	194.78373000691	384
2	2312	194.78373000691	385
2	2312	194.78373000691	386
2	2329	196.0310180888	387
2	2329	196.0310180888	388
2	2329	196.0310180888	389
2	2347	197.735069542997	390
2	2347	197.735069542997	391
2	2347	197.735069542997	392
2	2370	199.290677625653	393
2	2370	199.290677625653	394
2	2370	199.290677625653	395
2	2383	201.191150169693	396
2	2383	201.191150169693	397
2	2383	201.191150169693	398
2	2401	202.669539524285	399
2	2401	202.669539524285	400
2	2401	202.669539524285	401
2	2419	203.741108195504	402
2	2419	203.741108195504	403
2	2419	203.741108195504	404
2	2437	205.701064981982	405
2	2437	205.701064981982	406
2	2437	205.701064981982	407
2	2456	206.950620253057	408
2	2456	206.950620253057	409
2	2456	206.950620253057	410
2	2474	208.916182822726	411
2	2474	208.916182822726	412
2	2474	208.916182822726	413
2	2491	210.871616073836	414
2	2491	210.871616073836	415
2	2491	210.871616073836	416
2	2510	212.00458747739	417
2	2510	212.00458747739	418
2	2510	212.00458747739	419
2	2528	213.701989186343	420
2	2528	213.701989186343	421
2	2528	213.701989186343	422
2	2546	215.318294459851	423
2	2546	215.318294459851	424
2	2546	215.318294459851	425
2	2563	216.655543709686	426
2	2563	216.655543709686	427
2	2563	216.655543709686	428
2	2582	217.791125279302	429
2	2582	217.791125279302	430
2	2582	217.791125279302	431
2	2600	219.070586773256	432
2	2600	219.070586773256	433
2	2600	219.070586773256	434
2	2618	220.857837196561	435
2	2618	220.857837196561	436
2	2618	220.857837196561	437
2	2636	222.477697204511	438
2	2636	222.477697204511	439
2	2636	222.477697204511	440
2	2654	223.930098244699	441
2	2654	223.930098244699	442
2	2654	223.930098244699	443
2	2672	225.224090091306	444
2	2672	225.224090091306	445
2	2672	225.224090091306	446
2	2689	226.380580196389	447
2	2689	226.380580196389	448
2	2689	226.380580196389	449
2	2707	227.785951102291	450
2	2707	227.785951102291	451
2	2707	227.785951102291	452
2	2725	228.811671613475	453
2	2725	228.811671613475	454
2	2725	228.811671613475	455
2	2748	230.331300149089	456
2	2748	230.331300149089	457
2	2748	230.331300149089	458
2	2762	232.021918521498	459
2	2762	232.021918521498	460
2	2762	232.021918521498	461
2	2780	233.159773960281	462
2	2780	233.159773960281	463
2	2780	233.159773960281	464
2	2801	235.140227585361	465
2	2801	235.140227585361	466
2	2801	235.140227585361	467
2	2815	236.430850261814	468
2	2815	236.430850261814	469
2	2815	236.430850261814	470
2	2837	237.780239464489	471
2	2837	237.780239464489	472
2	2837	237.780239464489	473
2	2851	239.563412760597	474
2	2851	239.563412760597	475
2	2851	239.563412760597	476
3	8	0.228177698444	0
3	8	0.228177698444	1
3	8	0.228177698444	2
3	25	2.134286098792	3
3	25	2.134286098792	4
3	25	2.134286098792	5
3	48	3.79373844047	6
3	48	3.79373844047	7
3	48	3.79373844047	8
3	61	5.417289107733	9
3	61	5.417289107733	10
3	61	5.417289107733	11
3	80	7.271409569222	12
3	80	7.271409569222	13
3	80	7.271409569222	14
3	97	8.450372438559	15
3	97	8.450372438559	16
3	97	8.450372438559	17
3	115	9.922811912617	18
3	115	9.922811912617	19
3	115	9.922811912617	20
3	134	11.003571853608	21
3	134	11.003571853608	22
3	134	11.003571853608	23
3	152	12.836447832853	24
3	152	12.836447832853	25
3	152	12.836447832853	26
3	169	13.95478172225	27
3	169	13.95478172225	28
3	169	13.95478172225	29
3	191	15.262059686411	30
3	191	15.262059686411	31
3	191	15.262059686411	32
3	205	16.478464778291	33
3	205	16.478464778291	34
3	205	16.478464778291	35
3	223	17.849972279699	36
3	223	17.849972279699	37
3	223	17.849972279699	38
3	241	19.597371303919	39
3	241	19.597371303919	40
3	241	19.597371303919	41
3	260	21.545543824769	42
3	260	21.545543824769	43
3	260	21.545543824769	44
3	278	23.122152072808	45
3	278	23.122152072808	46
3	278	23.122152072808	47
3	295	24.768070875059	48
3	295	24.768070875059	49
3	295	24.768070875059	50
3	314	26.628383373893	51
3	314	26.628383373893	52
3	314	26.628383373893	53
3	331	27.760677326386	54
3	331	27.760677326386	55
3	331	27.760677326386	56
3	357	29.030580856389	57
3	357	29.030580856389	58
3	357	29.030580856389	59
3	367	30.489404997222	60
3	367	30.489404997222	61
3	367	30.489404997222	62
3	389	31.643218871514	63
3	389	31.643218871514	64
3	389	31.643218871514	65
3	403	33.076399934956	66
3	403	33.076399934956	67
3	403	33.076399934956	68
3	421	34.457094952498	69
3	421	34.457094952498	70
3	421	34.457094952498	71
3	443	36.342742433097	72
3	443	36.342742433097	73
3	443	36.342742433097	74
3	457	37.419501495991	75
3	457	37.419501495991	76
3	457	37.419501495991	77
3	476	39.142505169773	78
3	476	39.142505169773	79
3	476	39.142505169773	80
3	501	40.606608069562	81
3	501	40.606608069562	82
3	501	40.606608069562	83
3	511	41.853530572278	84
3	511	41.853530572278	85
3	511	41.853530572278	86
3	530	43.157214867851	87
3	530	43.157214867851	88
3	530	43.157214867851	89
3	547	45.003289367363	90
3	547	45.003289367363	91
3	547	45.003289367363	92
3	566	46.802266939287	93
3	566	46.802266939287	94
3	566	46.802266939287	95
3	583	48.557753089464	96
3	583	48.557753089464	97
3	583	48.557753089464	98
3	602	50.144375404935	99
3	602	50.144375404935	100
3	602	50.144375404935	101
3	623	51.600405011231	102
3	623	51.600405011231	103
3	623	51.600405011231	104
3	638	53.143237381306	105
3	638	53.143237381306	106
3	638	53.143237381306	107
3	659	55.066388158966	108
3	659	55.066388158966	109
3	659	55.066388158966	110
3	673	56.824452667713	111
3	673	56.824452667713	112
3	673	56.824452667713	113
3	692	57.983886742192	114
3	692	57.983886742192	115
3	692	57.983886742192	116
3	709	59.037943122965	117
3	709	59.037943122965	118
3	709	59.037943122965	119
3	728	60.804770462776	120
3	728	60.804770462776	121
3	728	60.804770462776	122
3	746	62.648225452019	123
3	746	62.648225452019	124
3	746	62.648225452019	125
3	763	64.45496958022	126
3	763	64.45496958022	127
3	763	64.45496958022	128
3	782	65.872252001736	129
3	782	65.872252001736	130
3	782	65.872252001736	131
3	800	67.094527736478	132
3	800	67.094527736478	133
3	800	67.094527736478	134
3	817	68.701188850617	135
3	817	68.701188850617	136
3	817	68.701188850617	137
3	836	69.786250655268	138
3	836	69.786250655268	139
3	836	69.786250655268	140
3	853	71.686026664304	141
3	853	71.686026664304	142
3	853	71.686026664304	143
3	872	73.681048564357	144
3	872	73.681048564357	145
3	872	73.681048564357	146
3	890	75.161682398586	147
3	890	75.161682398586	148
3	890	75.161682398586	149
3	907	76.237139433736	150
3	907	76.237139433736	151
3	907	76.237139433736	152
3	926	77.252323714987	153
3	926	77.252323714987	154
3	926	77.252323714987	155
3	943	79.009449921812	156
3	943	79.009449921812	157
3	943	79.009449921812	158
3	965	80.997412936399	159
3	965	80.997412936399	160
3	965	80.997412936399	161
3	983	82.988201199965	162
3	983	82.988201199965	163
3	983	82.988201199965	164
3	997	84.074425575351	165
3	997	84.074425575351	166
3	997	84.074425575351	167
3	1015	85.401456375818	168
3	1015	85.401456375818	169
3	1015	85.401456375818	170
3	1034	86.444292421422	171
3	1034	86.444292421422	172
3	1034	86.444292421422	173
3	1052	88.35150642908	174
3	1052	88.35150642908	175
3	1052	88.35150642908	176
3	1070	89.951921804262	177
3	1070	89.951921804262	178
3	1070	89.951921804262	179
3	1095	91.723647615145	180
3	1095	91.723647615145	181
3	1095	91.723647615145	182
3	1105	93.657084772998	183
3	1105	93.657084772998	184
3	1105	93.657084772998	185
3	1127	95.544094060739	186
3	1127	95.544094060739	187
3	1127	95.544094060739	188
3	1149	96.877945604867	189
3	1149	96.877945604867	190
3	1149	96.877945604867	191
3	1159	98.420518965934	192
3	1159	98.420518965934	193
3	1159	98.420518965934	194
3	1177	99.989660892877	195
3	1177	99.989660892877	196
3	1177	99.989660892877	197
3	1195	101.437761161994	198
3	1195	101.437761161994	199
3	1195	101.437761161994	200
3	1214	102.445260827146	201
3	1214	102.445260827146	202
3	1214	102.445260827146	203
3	1231	103.660525546015	204
3	1231	103.660525546015	205
3	1231	103.660525546015	206
3	1249	105.24015061229	207
3	1249	105.24015061229	208
3	1249	105.24015061229	209
3	1268	106.260560542392	210
3	1268	106.260560542392	211
3	1268	106.260560542392	212
3	1285	108.022137288399	213
3	1285	108.022137288399	214
3	1285	108.022137288399	215
3	1303	109.246392762673	216
3	1303	109.246392762673	217
3	1303	109.246392762673	218
3	1321	110.96610594087	219
3	1321	110.96610594087	220
3	1321	110.96610594087	221
3	1343	112.635585094228	222
3	1343	112.635585094228	223
3	1343	112.635585094228	224
3	1358	114.605303845184	225
3	1358	114.605303845184	226
3	1358	114.605303845184	227
3	1375	116.380790354055	228
3	1375	116.380790354055	229
3	1375	116.380790354055	230
3	1393	118.222465504381	231
3	1393	118.222465504381	232
3	1393	118.222465504381	233
3	1412	119.555833436999	234
3	1412	119.555833436999	235
3	1412	119.555833436999	236
3	1430	120.583096061819	237
3	1430	120.583096061819	238
3	1430	120.583096061819	239
3	1451	122.257827118337	240
3	1451	122.257827118337	241
3	1451	122.257827118337	242
3	1465	123.663091170861	243
3	1465	123.663091170861	244
3	1465	123.663091170861	245
3	1484	124.785387478255	246
3	1484	124.785387478255	247
3	1484	124.785387478255	248
3	1502	126.17291235304	249
3	1502	126.17291235304	250
3	1502	126.17291235304	251
3	1519	127.26380912379	252
3	1519	127.26380912379	253
3	1519	127.26380912379	254
3	1538	129.041665453653	255
3	1538	129.041665453653	256
3	1538	129.041665453653	257
3	1555	130.929359720519	258
3	1555	130.929359720519	259
3	1555	130.929359720519	260
3	1574	132.666626005003	261
3	1574	132.666626005003	262
3	1574	132.666626005003	263
3	1591	134.200706016945	264
3	1591	134.200706016945	265
3	1591	134.200706016945	266
3	1609	135.512268588432	267
3	1609	135.512268588432	268
3	1609	135.512268588432	269
3	1635	137.01137674932	270
3	1635	137.01137674932	271
3	1635	137.01137674932	272
3	1645	138.521721175867	273
3	1645	138.521721175867	274
3	1645	138.521721175867	275
3	1664	139.857576296692	276
3	1664	139.857576296692	277
3	1664	139.857576296692	278
3	1681	141.113111376704	279
3	1681	141.113111376704	280
3	1681	141.113111376704	281
3	1700	142.989422763787	282
3	1700	142.989422763787	283
3	1700	142.989422763787	284
3	1717	144.430385184133	285
3	1717	144.430385184133	286
3	1717	144.430385184133	287
3	1735	146.088793719619	288
3	1735	146.088793719619	289
3	1735	146.088793719619	290
3	1754	147.797728325492	291
3	1754	147.797728325492	292
3	1754	147.797728325492	293
3	1772	148.795528597538	294
3	1772	148.795528597538	295
3	1772	148.795528597538	296
3	1789	150.575834108888	297
3	1789	150.575834108888	298
3	1789	150.575834108888	299
3	1807	152.499338631976	300
3	1807	152.499338631976	301
3	1807	152.499338631976	302
3	1825	153.991504729917	303
3	1825	153.991504729917	304
3	1825	153.991504729917	305
3	1843	155.758433801706	306
3	1843	155.758433801706	307
3	1843	155.758433801706	308
3	1862	157.466610169486	309
3	1862	157.466610169486	310
3	1862	157.466610169486	311
3	1880	158.881464977888	312
3	1880	158.881464977888	313
3	1880	158.881464977888	314
3	1898	160.14119391421	315
3	1898	160.14119391421	316
3	1898	160.14119391421	317
3	1916	161.524319884542	318
3	1916	161.524319884542	319
3	1916	161.524319884542	320
3	1934	163.10116631044	321
3	1934	163.10116631044	322
3	1934	163.10116631044	323
3	1951	164.761575203735	324
3	1951	164.761575203735	325
3	1951	164.761575203735	326
3	1969	165.913378143583	327
3	1969	165.913378143583	328
3	1969	165.913378143583	329
3	1987	167.269803601943	330
3	1987	167.269803601943	331
3	1987	167.269803601943	332
3	2005	168.582837153819	333
3	2005	168.582837153819	334
3	2005	168.582837153819	335
3	2023	169.934794822586	336
3	2023	169.934794822586	337
3	2023	169.934794822586	338
3	2041	171.810766376813	339
3	2041	171.810766376813	340
3	2041	171.810766376813	341
3	2059	173.559525765382	342
3	2059	173.559525765382	343
3	2059	173.559525765382	344
3	2077	175.334920720562	345
3	2077	175.334920720562	346
3	2077	175.334920720562	347
3	2095	176.714236769687	348
3	2095	176.714236769687	349
3	2095	176.714236769687	350
3	2113	178.194643840748	351
3	2113	178.194643840748	352
3	2113	178.194643840748	353
3	2131	179.539783741448	354
3	2131	179.539783741448	355
3	2131	179.539783741448	356
3	2149	181.47536307169	357
3	2149	181.47536307169	358
3	2149	181.47536307169	359
3	2171	182.736526920132	360
3	2171	182.736526920132	361
3	2171	182.736526920132	362
3	2186	184.359924947123	363
3	2186	184.359924947123	364
3	2186	184.359924947123	365
3	2203	186.023778662154	366
3	2203	186.023778662154	367
3	2203	186.023778662154	368
3	2225	187.119949345492	369
3	2225	187.119949345492	370
3	2225	187.119949345492	371
3	2239	188.705855087708	372
3	2239	188.705855087708	373
3	2239	188.705855087708	374
3	2257	189.731104697718	375
3	2257	189.731104697718	376
3	2257	189.731104697718	377
3	2283	191.54205326241	378
3	2283	191.54205326241	379
3	2283	191.54205326241	380
3	2293	193.199718276282	381
3	2293	193.199718276282	382
3	2293	193.199718276282	383
3	2311	194.776909588573	384
3	2311	194.776909588573	385
3	2311	194.776909588573	386
3	2333	196.043322211049	387
3	2333	196.043322211049	388
3	2333	196.043322211049	389
3	2348	197.739124321059	390
3	2348	197.739124321059	391
3	2348	197.739124321059	392
3	2365	199.27514774943	393
3	2365	199.27514774943	394
3	2365	199.27514774943	395
3	2384	201.196258834923	396
3	2384	201.196258834923	397
3	2384	201.196258834923	398
3	2402	202.670285336973	399
3	2402	202.670285336973	400
3	2402	202.670285336973	401
3	2420	203.745625579522	402
3	2420	203.745625579522	403
3	2420	203.745625579522	404
3	2441	205.713029968356	405
3	2441	205.713029968356	406
3	2441	205.713029968356	407
3	2455	206.948854906276	408
3	2455	206.948854906276	409
3	2455	206.948854906276	410
3	2473	208.9144514564	411
3	2473	208.9144514564	412
3	2473	208.9144514564	413
3	2492	210.871782978725	414
3	2492	210.871782978725	415
3	2492	210.871782978725	416
3	2509	212.001857969915	417
3	2509	212.001857969915	418
3	2509	212.001857969915	419
3	2527	213.701784498307	420
3	2527	213.701784498307	421
3	2527	213.701784498307	422
3	2545	215.314214292467	423
3	2545	215.314214292467	424
3	2545	215.314214292467	425
3	2564	216.661425471315	426
3	2564	216.661425471315	427
3	2564	216.661425471315	428
3	2581	217.789773270035	429
3	2581	217.789773270035	430
3	2581	217.789773270035	431
3	2599	219.06422635418	432
3	2599	219.06422635418	433
3	2599	219.06422635418	434
3	2617	220.853466744555	435
3	2617	220.853466744555	436
3	2617	220.853466744555	437
3	2635	222.476814783976	438
3	2635	222.476814783976	439
3	2635	222.476814783976	440
3	2653	223.929022157894	441
3	2653	223.929022157894	442
3	2653	223.929022157894	443
3	2671	225.221694138958	444
3	2671	225.221694138958	445
3	2671	225.221694138958	446
3	2690	226.382982825888	447
3	2690	226.382982825888	448
3	2690	226.382982825888	449
3	2712	227.815002290336	450
3	2712	227.815002290336	451
3	2712	227.815002290336	452
3	2726	228.813950055254	453
3	2726	228.813950055254	454
3	2726	228.813950055254	455
3	2743	230.314667337024	456
3	2743	230.314667337024	457
3	2743	230.314667337024	458
3	2761	232.016996265062	459
3	2761	232.016996265062	460
3	2761	232.016996265062	461
3	2779	233.157885152349	462
3	2779	233.157885152349	463
3	2779	233.157885152349	464
3	2797	235.121227773676	465
3	2797	235.121227773676	466
3	2797	235.121227773676	467
3	2816	236.431483134206	468
3	2816	236.431483134206	469
3	2816	236.431483134206	470
3	2833	237.769467106132	471
3	2833	237.769467106132	472
3	2833	237.769467106132	473
3	2855	239.583723146547	474
3	2855	239.583723146547	475
3	2855	239.583723146547	476
4	15	0.275007828545	0
4	15	0.275007828545	1
4	15	0.275007828545	2
4	29	2.149258058031	3
4	29	2.149258058031	4
4	29	2.149258058031	5
4	47	3.791317200124	6
4	47	3.791317200124	7
4	47	3.791317200124	8
4	65	5.430313303498	9
4	65	5.430313303498	10
4	65	5.430313303498	11
4	87	7.290558201228	12
4	87	7.290558201228	13
4	87	7.290558201228	14
4	105	8.486880632553	15
4	105	8.486880632553	16
4	105	8.486880632553	17
4	120	9.944790680341	18
4	120	9.944790680341	19
4	120	9.944790680341	20
4	138	11.008217167598	21
4	138	11.008217167598	22
4	138	11.008217167598	23
4	156	12.844584268867	24
4	156	12.844584268867	25
4	156	12.844584268867	26
4	177	13.980234770703	27
4	177	13.980234770703	28
4	177	13.980234770703	29
4	192	15.262687896854	30
4	192	15.262687896854	31
4	192	15.262687896854	32
4	209	16.488494087155	33
4	209	16.488494087155	34
4	209	16.488494087155	35
4	228	17.863665461677	36
4	228	17.863665461677	37
4	228	17.863665461677	38
4	246	19.609983612689	39
4	246	19.609983612689	40
4	246	19.609983612689	41
4	267	21.558306676241	42
4	267	21.558306676241	43
4	267	21.558306676241	44
4	285	23.14077211695	45
4	285	23.14077211695	46
4	285	23.14077211695	47
4	303	24.800233824267	48
4	303	24.800233824267	49
4	303	24.800233824267	50
4	321	26.640465516623	51
4	321	26.640465516623	52
4	321	26.640465516623	53
4	339	27.784509996447	54
4	339	27.784509996447	55
4	339	27.784509996447	56
4	353	29.015078995564	57
4	353	29.015078995564	58
4	353	29.015078995564	59
4	371	30.500327362527	60
4	371	30.500327362527	61
4	371	30.500327362527	62
4	390	31.64483867813	63
4	390	31.64483867813	64
4	390	31.64483867813	65
4	407	33.092614709391	66
4	407	33.092614709391	67
4	407	33.092614709391	68
4	429	34.475000476347	69
4	429	34.475000476347	70
4	429	34.475000476347	71
4	447	36.37122468202	72
4	447	36.37122468202	73
4	447	36.37122468202	74
4	465	37.445203695818	75
4	465	37.445203695818	76
4	465	37.445203695818	77
4	483	39.153277324023	78
4	483	39.153277324023	79
4	483	39.153277324023	80
4	497	40.595662575549	81
4	497	40.595662575549	82
4	497	40.595662575549	83
4	516	41.867203669314	84
4	516	41.867203669314	85
4	516	41.867203669314	86
4	534	43.16656003873	87
4	534	43.16656003873	88
4	534	43.16656003873	89
4	555	45.03460948979	90
4	555	45.03460948979	91
4	555	45.03460948979	92
4	573	46.818199140854	93
4	573	46.818199140854	94
4	573	46.818199140854	95
4	588	48.568956216975	96
4	588	48.568956216975	97
4	588	48.568956216975	98
4	609	50.175044985316	99
4	609	50.175044985316	100
4	609	50.175044985316	101
4	627	51.610694219091	102
4	627	51.610694219091	103
4	627	51.610694219091	104
4	642	53.14614773917	105
4	642	53.14614773917	106
4	642	53.14614773917	107
4	663	55.077584883025	108
4	663	55.077584883025	109
4	663	55.077584883025	110
4	681	56.848452102333	111
4	681	56.848452102333	112
4	681	56.848452102333	113
4	696	57.990421976547	114
4	696	57.990421976547	115
4	696	57.990421976547	116
4	717	59.058421322814	117
4	717	59.058421322814	118
4	717	59.058421322814	119
4	735	60.836997830917	120
4	735	60.836997830917	121
4	735	60.836997830917	122
4	753	62.682866927799	123
4	753	62.682866927799	124
4	753	62.682866927799	125
4	771	64.465370753185	126
4	771	64.465370753185	127
4	771	64.465370753185	128
4	789	65.896712364116	129
4	789	65.896712364116	130
4	789	65.896712364116	131
4	807	67.104989748765	132
4	807	67.104989748765	133
4	807	67.104989748765	134
4	825	68.73587073416	135
4	825	68.73587073416	136
4	825	68.73587073416	137
4	843	69.812840997142	138
4	843	69.812840997142	139
4	843	69.812840997142	140
4	861	71.69848507108	141
4	861	71.69848507108	142
4	861	71.69848507108	143
4	876	73.689375840593	144
4	876	73.689375840593	145
4	876	73.689375840593	146
4	894	75.168235524534	147
4	894	75.168235524534	148
4	894	75.168235524534	149
4	915	76.256041921026	150
4	915	76.256041921026	151
4	915	76.256041921026	152
4	933	77.264096208638	153
4	933	77.264096208638	154
4	933	77.264096208638	155
4	948	79.029167502625	156
4	948	79.029167502625	157
4	948	79.029167502625	158
4	969	81.010036113144	159
4	969	81.010036113144	160
4	969	81.010036113144	161
4	987	83.007230659822	162
4	987	83.007230659822	163
4	987	83.007230659822	164
4	1005	84.11984622673	165
4	1005	84.11984622673	166
4	1005	84.11984622673	167
4	1023	85.428295929126	168
4	1023	85.428295929126	169
4	1023	85.428295929126	170
4	1041	86.45556116321	171
4	1041	86.45556116321	172
4	1041	86.45556116321	173
4	1059	88.377702862036	174
4	1059	88.377702862036	175
4	1059	88.377702862036	176
4	1077	89.969937695558	177
4	1077	89.969937695558	178
4	1077	89.969937695558	179
4	1091	91.669616531946	180
4	1091	91.669616531946	181
4	1091	91.669616531946	182
4	1109	93.675819961321	183
4	1109	93.675819961321	184
4	1109	93.675819961321	185
4	1131	95.57423522217	186
4	1131	95.57423522217	187
4	1131	95.57423522217	188
4	1145	96.866595447844	189
4	1145	96.866595447844	190
4	1145	96.866595447844	191
4	1167	98.436433672128	192
4	1167	98.436433672128	193
4	1167	98.436433672128	194
4	1185	100.009074957124	195
4	1185	100.009074957124	196
4	1185	100.009074957124	197
4	1203	101.463233648343	198
4	1203	101.463233648343	199
4	1203	101.463233648343	200
4	1221	102.458531051069	201
4	1221	102.458531051069	202
4	1221	102.458531051069	203
4	1239	103.67337264693	204
4	1239	103.67337264693	205
4	1239	103.67337264693	206
4	1257	105.266470873321	207
4	1257	105.266470873321	208
4	1257	105.266470873321	209
4	1272	106.268934354356	210
4	1272	106.268934354356	211
4	1272	106.268934354356	212
4	1290	108.033691054607	213
4	1290	108.033691054607	214
4	1290	108.033691054607	215
4	1308	109.257013506736	216
4	1308	109.257013506736	217
4	1308	109.257013506736	218
4	1329	110.984006680886	219
4	1329	110.984006680886	220
4	1329	110.984006680886	221
4	1344	112.636698411641	222
4	1344	112.636698411641	223
4	1344	112.636698411641	224
4	1365	114.620350746738	225
4	1365	114.620350746738	226
4	1365	114.620350746738	227
4	1380	116.397476156087	228
4	1380	116.397476156087	229
4	1380	116.397476156087	230
4	1398	118.232645601036	231
4	1398	118.232645601036	232
4	1398	118.232645601036	233
4	1419	119.574857290814	234
4	1419	119.574857290814	235
4	1419	119.574857290814	236
4	1434	120.587454055786	237
4	1434	120.587454055786	238
4	1434	120.587454055786	239
4	1455	122.269991634872	240
4	1455	122.269991634872	241
4	1455	122.269991634872	242
4	1469	123.675835100408	243
4	1469	123.675835100408	244
4	1469	123.675835100408	245
4	1491	124.811547268208	246
4	1491	124.811547268208	247
4	1491	124.811547268208	248
4	1506	126.182621653139	249
4	1506	126.182621653139	250
4	1506	126.182621653139	251
4	1527	127.290453790589	252
4	1527	127.290453790589	253
4	1527	127.290453790589	254
4	1542	129.050892451738	255
4	1542	129.050892451738	256
4	1542	129.050892451738	257
4	1560	130.94432157165	258
4	1560	130.94432157165	259
4	1560	130.94432157165	260
4	1578	132.675288815575	261
4	1578	132.675288815575	262
4	1578	132.675288815575	263
4	1596	134.214011278737	264
4	1596	134.214011278737	265
4	1596	134.214011278737	266
4	1617	135.526113376155	267
4	1617	135.526113376155	268
4	1617	135.526113376155	269
4	1631	137.000465266202	270
4	1631	137.000465266202	271
4	1631	137.000465266202	272
4	1650	138.532518653495	273
4	1650	138.532518653495	274
4	1650	138.532518653495	275
4	1668	139.864455311405	276
4	1668	139.864455311405	277
4	1668	139.864455311405	278
4	1685	141.12789134825	279
4	1685	141.12789134825	280
4	1685	141.12789134825	281
4	1704	142.995922290865	282
4	1704	142.995922290865	283
4	1704	142.995922290865	284
4	1725	144.490067179161	285
4	1725	144.490067179161	286
4	1725	144.490067179161	287
4	1740	146.09977915061	288
4	1740	146.09977915061	289
4	1740	146.09977915061	290
4	1761	147.815841783171	291
4	1761	147.815841783171	292
4	1761	147.815841783171	293
4	1779	148.82977356706	294
4	1779	148.82977356706	295
4	1779	148.82977356706	296
4	1797	150.58708726474	297
4	1797	150.58708726474	298
4	1797	150.58708726474	299
4	1815	152.519310509321	300
4	1815	152.519310509321	301
4	1815	152.519310509321	302
4	1833	154.006915507384	303
4	1833	154.006915507384	304
4	1833	154.006915507384	305
4	1847	155.770521162909	306
4	1847	155.770521162909	307
4	1847	155.770521162909	308
4	1869	157.485631686769	309
4	1869	157.485631686769	310
4	1869	157.485631686769	311
4	1887	158.909420923165	312
4	1887	158.909420923165	313
4	1887	158.909420923165	314
4	1905	160.172095170691	315
4	1905	160.172095170691	316
4	1905	160.172095170691	317
4	1923	161.539408450134	318
4	1923	161.539408450134	319
4	1923	161.539408450134	320
4	1941	163.119452144934	321
4	1941	163.119452144934	322
4	1941	163.119452144934	323
4	1955	164.779064826937	324
4	1955	164.779064826937	325
4	1955	164.779064826937	326
4	1973	165.924053111313	327
4	1973	165.924053111313	328
4	1973	165.924053111313	329
4	1992	167.293730272144	330
4	1992	167.293730272144	331
4	1992	167.293730272144	332
4	2009	168.601482768548	333
4	2009	168.601482768548	334
4	2009	168.601482768548	335
4	2031	169.952027263825	336
4	2031	169.952027263825	337
4	2031	169.952027263825	338
4	2045	171.820844898678	339
4	2045	171.820844898678	340
4	2045	171.820844898678	341
4	2067	173.576967755629	342
4	2067	173.576967755629	343
4	2067	173.576967755629	344
4	2085	175.358382037542	345
4	2085	175.358382037542	346
4	2085	175.358382037542	347
4	2103	176.735174436707	348
4	2103	176.735174436707	349
4	2103	176.735174436707	350
4	2121	178.226763424653	351
4	2121	178.226763424653	352
4	2121	178.226763424653	353
4	2136	179.550745049549	354
4	2136	179.550745049549	355
4	2136	179.550745049549	356
4	2157	181.495780466395	357
4	2157	181.495780466395	358
4	2157	181.495780466395	359
4	2172	182.738407178274	360
4	2172	182.738407178274	361
4	2172	182.738407178274	362
4	2190	184.367337764014	363
4	2190	184.367337764014	364
4	2190	184.367337764014	365
4	2211	186.044076431029	366
4	2211	186.044076431029	367
4	2211	186.044076431029	368
4	2229	187.134727941692	369
4	2229	187.134727941692	370
4	2229	187.134727941692	371
4	2243	188.716055523261	372
4	2243	188.716055523261	373
4	2243	188.716055523261	374
4	2265	189.75233628982	375
4	2265	189.75233628982	376
4	2265	189.75233628982	377
4	2279	191.519552574419	378
4	2279	191.519552574419	379
4	2279	191.519552574419	380
4	2297	193.213102609689	381
4	2297	193.213102609689	382
4	2297	193.213102609689	383
4	2319	194.798491361531	384
4	2319	194.798491361531	385
4	2319	194.798491361531	386
4	2337	196.06037813721	387
4	2337	196.06037813721	388
4	2337	196.06037813721	389
4	2355	197.75772324857	390
4	2355	197.75772324857	391
4	2355	197.75772324857	392
4	2369	199.28582734463	393
4	2369	199.28582734463	394
4	2369	199.28582734463	395
4	2391	201.2090539522	396
4	2391	201.2090539522	397
4	2391	201.2090539522	398
4	2409	202.695144502142	399
4	2409	202.695144502142	400
4	2409	202.695144502142	401
4	2427	203.786751004439	402
4	2427	203.786751004439	403
4	2427	203.786751004439	404
4	2442	205.715274585125	405
4	2442	205.715274585125	406
4	2442	205.715274585125	407
4	2460	206.959471774194	408
4	2460	206.959471774194	409
4	2460	206.959471774194	410
4	2481	208.93380286214	411
4	2481	208.93380286214	412
4	2481	208.93380286214	413
4	2499	210.881976566438	414
4	2499	210.881976566438	415
4	2499	210.881976566438	416
4	2514	212.013637856826	417
4	2514	212.013637856826	418
4	2514	212.013637856826	419
4	2535	213.744401338851	420
4	2535	213.744401338851	421
4	2535	213.744401338851	422
4	2553	215.347845347894	423
4	2553	215.347845347894	424
4	2553	215.347845347894	425
4	2568	216.668423402628	426
4	2568	216.668423402628	427
4	2568	216.668423402628	428
4	2589	217.834038619096	429
4	2589	217.834038619096	430
4	2589	217.834038619096	431
4	2607	219.108760388638	432
4	2607	219.108760388638	433
4	2607	219.108760388638	434
4	2625	220.883904333535	435
4	2625	220.883904333535	436
4	2625	220.883904333535	437
4	2643	222.505431612343	438
4	2643	222.505431612343	439
4	2643	222.505431612343	440
4	2661	223.951473449059	441
4	2661	223.951473449059	442
4	2661	223.951473449059	443
4	2676	225.232474559213	444
4	2676	225.232474559213	445
4	2676	225.232474559213	446
4	2694	226.391169976295	447
4	2694	226.391169976295	448
4	2694	226.391169976295	449
4	2711	227.806761610904	450
4	2711	227.806761610904	451
4	2711	227.806761610904	452
4	2730	228.822286801822	453
4	2730	228.822286801822	454
4	2730	228.822286801822	455
4	2747	230.326798879136	456
4	2747	230.326798879136	457
4	2747	230.326798879136	458
4	2769	232.04300437075	459
4	2769	232.04300437075	460
4	2769	232.04300437075	461
4	2787	233.175264254758	462
4	2787	233.175264254758	463
4	2787	233.175264254758	464
4	2802	235.144842261798	465
4	2802	235.144842261798	466
4	2802	235.144842261798	467
4	2823	236.449793382967	468
4	2823	236.449793382967	469
4	2823	236.449793382967	470
4	2841	237.793103162215	471
4	2841	237.793103162215	472
4	2841	237.793103162215	473
4	2856	239.588450015108	474
4	2856	239.588450015108	475
4	2856	239.588450015108	476
5	18	0.285007828545	0
5	33	2.159258058031	1
5	51	3.801317200124	2
5	69	5.440313303498	3
5	90	7.300558201228	4
5	108	8.496880632553	5
5	126	9.954790680341	6
5	144	11.018217167598	7
5	162	12.854584268867	8
5	180	13.990234770703	9
5	198	15.272687896854	10
5	213	16.498494087155	11
5	234	17.873665461677	12
5	252	19.619983612689	13
5	270	21.568306676241	14
5	288	23.15077211695	15
5	306	24.810233824267	16
5	324	26.650465516623	17
5	342	27.794509996447	18
5	356	29.025078995564	19
5	374	30.510327362527	20
5	396	31.65483867813	21
5	411	33.102614709391	22
5	432	34.485000476347	23
5	450	36.38122468202	24
5	468	37.455203695818	25
5	486	39.163277324023	26
5	500	40.605662575549	27
5	522	41.877203669314	28
5	540	43.17656003873	29
5	558	45.04460948979	30
5	576	46.828199140854	31
5	594	48.578956216975	32
5	612	50.185044985316	33
5	630	51.620694219091	34
5	648	53.15614773917	35
5	666	55.087584883025	36
5	684	56.858452102333	37
5	702	58.000421976547	38
5	720	59.068421322814	39
5	738	60.846997830917	40
5	756	62.692866927799	41
5	774	64.475370753185	42
5	792	65.906712364116	43
5	810	67.114989748765	44
5	828	68.74587073416	45
5	846	69.822840997142	46
5	864	71.70848507108	47
5	882	73.699375840593	48
5	900	75.178235524534	49
5	918	76.266041921026	50
5	936	77.274096208638	51
5	954	79.039167502625	52
5	972	81.020036113144	53
5	990	83.017230659822	54
5	1008	84.12984622673	55
5	1026	85.438295929126	56
5	1044	86.46556116321	57
5	1062	88.387702862036	58
5	1080	89.979937695558	59
5	1094	91.679616531946	60
5	1113	93.685819961321	61
5	1134	95.58423522217	62
5	1148	96.876595447844	63
5	1170	98.446433672128	64
5	1188	100.019074957124	65
5	1206	101.473233648343	66
5	1224	102.468531051069	67
5	1242	103.68337264693	68
5	1260	105.276470873321	69
5	1278	106.278934354356	70
5	1296	108.043691054607	71
5	1314	109.267013506736	72
5	1332	110.994006680886	73
5	1350	112.646698411641	74
5	1368	114.630350746738	75
5	1386	116.407476156087	76
5	1404	118.242645601036	77
5	1422	119.584857290814	78
5	1440	120.597454055786	79
5	1458	122.279991634872	80
5	1472	123.685835100408	81
5	1494	124.821547268208	82
5	1512	126.192621653139	83
5	1530	127.300453790589	84
5	1548	129.060892451738	85
5	1566	130.95432157165	86
5	1584	132.685288815575	87
5	1602	134.224011278737	88
5	1620	135.536113376155	89
5	1634	137.010465266202	90
5	1656	138.542518653495	91
5	1674	139.874455311405	92
5	1688	141.13789134825	93
5	1710	143.005922290865	94
5	1728	144.500067179161	95
5	1746	146.10977915061	96
5	1764	147.825841783171	97
5	1782	148.83977356706	98
5	1800	150.59708726474	99
5	1818	152.529310509321	100
5	1836	154.016915507384	101
5	1851	155.780521162909	102
5	1872	157.495631686769	103
5	1890	158.919420923165	104
5	1908	160.182095170691	105
5	1926	161.549408450134	106
5	1944	163.129452144934	107
5	1958	164.789064826937	108
5	1977	165.934053111313	109
5	1998	167.303730272144	110
5	2013	168.611482768548	111
5	2034	169.962027263825	112
5	2048	171.830844898678	113
5	2070	173.586967755629	114
5	2088	175.368382037542	115
5	2106	176.745174436707	116
5	2124	178.236763424653	117
5	2142	179.560745049549	118
5	2160	181.505780466395	119
5	2178	182.748407178274	120
5	2196	184.377337764014	121
5	2214	186.054076431029	122
5	2232	187.144727941692	123
5	2247	188.726055523261	124
5	2268	189.76233628982	125
5	2282	191.529552574419	126
5	2300	193.223102609689	127
5	2322	194.808491361531	128
5	2340	196.07037813721	129
5	2358	197.76772324857	130
5	2373	199.29582734463	131
5	2394	201.2190539522	132
5	2412	202.705144502142	133
5	2430	203.796751004439	134
5	2448	205.725274585125	135
5	2466	206.969471774194	136
5	2484	208.94380286214	137
5	2502	210.891976566438	138
5	2520	212.023637856826	139
5	2538	213.754401338851	140
5	2556	215.357845347894	141
5	2574	216.678423402628	142
5	2592	217.844038619096	143
5	2610	219.118760388638	144
5	2628	220.893904333535	145
5	2646	222.515431612343	146
5	2664	223.961473449059	147
5	2682	225.242474559213	148
5	2700	226.401169976295	149
5	2715	227.816761610904	150
5	2736	228.832286801822	151
5	2751	230.336798879136	152
5	2772	232.05300437075	153
5	2790	233.185264254758	154
5	2808	235.154842261798	155
5	2826	236.459793382967	156
5	2844	237.803103162215	157
5	2862	239.598450015108	158

