version 2
run General-4-20230921-21:32:46-5507
attr configname General
attr datetime 20230921-21:32:46
attr experiment General
attr inifile omnetpp.ini
attr iterationvars ""
attr iterationvarsf ""
attr measurement ""
attr network Network1
attr processid 5507
attr repetition 4
attr replication #4
attr resultdir results
attr runnumber 4
attr seedset 4
param Network1.node[*].transmissionTime "uniform(1s, 2s)"
param Network1.node[*].delayTime "uniform(0.01s, 0.2s)"
param Network1.node[*].processingTime exponential(0.01s)
param Network1.node[*].lossProbability 0.2

vector 0 Network1.node[0] txVector ETV
vector 1 Network1.node[1] txVector ETV
vector 2 Network1.node[3] txVector ETV
vector 3 Network1.node[2] txVector ETV
vector 4 Network1.node[4] txVector ETV
vector 5 Network1.node[5] rxVector ETV
0	1	0.193735669288	0
0	19	2.094357123985	1
0	33	3.727320223502	2
0	51	5.339845566698	3
0	69	6.405555105456	4
0	87	7.634317775643	5
0	105	9.211314744469	6
0	107	11.022219681334	7
0	125	12.14840134202	8
0	139	13.524820812665	9
0	149	14.620018890048	10
0	167	16.563969563148	11
0	185	18.493338163397	12
0	191	20.420746773868	13
0	205	22.388426403203	14
0	223	23.460709658838	15
0	241	24.923039021124	16
0	251	26.484507485214	17
0	253	28.146809920357	18
0	271	29.730353451954	19
0	273	31.364922946241	20
0	275	32.856710583825	21
0	293	34.788124851339	22
0	311	35.927306650827	23
0	329	37.701278277362	24
0	347	39.578356181193	25
0	365	41.530326601738	26
0	383	42.725274289414	27
0	401	44.47252273249	28
0	403	45.516445240625	29
0	421	46.801689834255	30
0	439	47.827091535707	31
0	457	49.119952296061	32
0	475	50.231826612414	33
0	477	51.685655851071	34
0	491	53.035386948767	35
0	509	54.987055540937	36
0	527	56.388754629451	37
0	545	57.985257906295	38
0	563	59.9188005353	39
0	581	60.951860002862	40
0	599	62.051059297906	41
0	617	63.710094825053	42
0	635	65.249543018095	43
0	653	66.619780313844	44
0	671	68.104335166436	45
0	689	69.513416237586	46
0	707	70.758098167523	47
0	725	72.676281468866	48
0	743	74.206615280982	49
0	761	75.697722859139	50
0	779	77.00150350497	51
0	797	78.325224518468	52
0	815	79.472629866488	53
0	833	81.046411740286	54
0	851	82.70191280676	55
0	853	83.717572301318	56
0	855	84.974407723331	57
0	873	86.835731055745	58
0	875	88.083033593529	59
0	893	89.905346535769	60
0	911	91.252553947427	61
0	929	92.84200032397	62
0	947	93.903380342683	63
0	965	95.524963177897	64
0	983	96.813085988088	65
0	1001	98.7446970883	66
0	1007	100.715743615915	67
0	1025	102.24217176197	68
0	1027	104.084211649996	69
0	1045	105.990773482638	70
0	1047	107.565917625482	71
0	1065	108.842444576946	72
0	1083	110.333810196183	73
0	1101	111.550151570392	74
0	1119	113.135839333682	75
0	1125	115.029187295976	76
0	1143	116.059759060544	77
0	1153	117.122766122379	78
0	1171	118.689327099518	79
0	1181	120.135660720681	80
0	1199	121.74558188782	81
0	1217	123.532749138232	82
0	1235	124.82323096266	83
0	1237	126.070998661378	84
0	1239	127.542939661927	85
0	1241	129.263226531371	86
0	1259	130.320419251145	87
0	1277	131.466530960444	88
0	1279	132.491597247235	89
0	1297	133.718459527632	90
0	1315	135.426031057648	91
0	1333	137.09847824757	92
0	1351	139.070531461313	93
0	1369	140.841707134544	94
0	1387	142.700549326063	95
0	1389	144.016924095265	96
0	1407	145.159898005118	97
0	1409	146.951753588551	98
0	1427	148.105112833594	99
0	1445	149.415252464282	100
0	1463	151.287274774321	101
0	1465	152.770522529184	102
0	1483	154.009807472042	103
0	1485	155.28100431051	104
0	1503	157.057090689353	105
0	1505	159.038351680775	106
0	1507	160.221138816251	107
0	1525	162.06708314332	108
0	1543	164.063444783369	109
0	1561	165.336251798009	110
0	1563	166.36054966172	111
0	1581	167.566319387795	112
0	1599	168.664178177172	113
0	1617	170.485603552701	114
0	1635	172.333051538717	115
0	1653	173.52706507027	116
0	1671	175.123227397602	117
0	1689	176.808227991376	118
0	1707	178.212528808664	119
0	1725	180.177989852538	120
0	1743	181.455160759313	121
0	1745	183.0399337948	122
0	1763	184.508900634868	123
0	1781	185.778681221109	124
0	1799	187.040946628589	125
0	1817	188.539743879733	126
0	1835	189.650113374384	127
0	1853	191.616482492227	128
0	1855	193.097563643165	129
0	1873	194.514515149331	130
0	1891	195.762234323349	131
0	1893	197.166485245962	132
0	1911	198.869718384387	133
0	1929	199.946161709417	134
0	1931	201.689585033961	135
0	1949	203.318671469035	136
0	1951	205.266719843883	137
0	1969	206.443356708314	138
0	1975	207.903991886105	139
0	1993	209.287125296581	140
0	2011	210.436816829645	141
0	2029	212.252155480131	142
0	2031	213.428093864506	143
0	2049	214.588251456309	144
0	2067	215.947670336503	145
0	2085	217.595844393286	146
0	2103	219.229539218514	147
0	2121	220.441576861233	148
0	2139	221.478481547131	149
0	2157	223.204462282282	150
0	2175	225.063285773077	151
0	2193	227.063046906066	152
0	2211	229.029602973179	153
0	2229	230.443796806891	154
0	2247	232.388219942261	155
0	2265	233.476165614944	156
0	2283	234.692709868696	157
0	2301	235.974444217669	158
0	2319	237.966896759967	159
0	2337	239.428114745223	160
1	3	0.205631491707	0
1	3	0.205631491707	1
1	3	0.205631491707	2
1	21	2.104408849027	3
1	21	2.104408849027	4
1	21	2.104408849027	5
1	35	3.740419142902	6
1	35	3.740419142902	7
1	35	3.740419142902	8
1	53	5.351779730289	9
1	53	5.351779730289	10
1	53	5.351779730289	11
1	71	6.41792728371	12
1	71	6.41792728371	13
1	71	6.41792728371	14
1	89	7.648651387421	15
1	89	7.648651387421	16
1	89	7.648651387421	17
1	109	11.033006936156	18
1	109	11.033006936156	19
1	109	11.033006936156	20
1	127	12.177156379878	21
1	127	12.177156379878	22
1	127	12.177156379878	23
1	141	13.537272535394	24
1	141	13.537272535394	25
1	141	13.537272535394	26
1	151	14.631796669657	27
1	151	14.631796669657	28
1	151	14.631796669657	29
1	169	16.575349953761	30
1	169	16.575349953761	31
1	169	16.575349953761	32
1	187	18.505291112658	33
1	187	18.505291112658	34
1	187	18.505291112658	35
1	193	20.434612456408	36
1	193	20.434612456408	37
1	193	20.434612456408	38
1	207	22.400573682301	39
1	207	22.400573682301	40
1	207	22.400573682301	41
1	225	23.472281605739	42
1	225	23.472281605739	43
1	225	23.472281605739	44
1	243	24.933143835229	45
1	243	24.933143835229	46
1	243	24.933143835229	47
1	255	28.169787739011	48
1	255	28.169787739011	49
1	255	28.169787739011	50
1	277	32.894182731103	51
1	277	32.894182731103	52
1	277	32.894182731103	53
1	295	34.811201701415	54
1	295	34.811201701415	55
1	295	34.811201701415	56
1	313	35.952802252402	57
1	313	35.952802252402	58
1	313	35.952802252402	59
1	331	37.720360458585	60
1	331	37.720360458585	61
1	331	37.720360458585	62
1	349	39.588522391039	63
1	349	39.588522391039	64
1	349	39.588522391039	65
1	367	41.545337604642	66
1	367	41.545337604642	67
1	367	41.545337604642	68
1	385	42.736150591089	69
1	385	42.736150591089	70
1	385	42.736150591089	71
1	405	45.529598707274	72
1	405	45.529598707274	73
1	405	45.529598707274	74
1	423	46.813155771187	75
1	423	46.813155771187	76
1	423	46.813155771187	77
1	441	47.863019186934	78
1	441	47.863019186934	79
1	441	47.863019186934	80
1	459	49.137943491004	81
1	459	49.137943491004	82
1	459	49.137943491004	83
1	479	51.697683379536	84
1	479	51.697683379536	85
1	479	51.697683379536	86
1	493	53.056257391307	87
1	493	53.056257391307	88
1	493	53.056257391307	89
1	511	55.013055073445	90
1	511	55.013055073445	91
1	511	55.013055073445	92
1	529	56.415637622068	93
1	529	56.415637622068	94
1	529	56.415637622068	95
1	547	57.997715839306	96
1	547	57.997715839306	97
1	547	57.997715839306	98
1	565	59.931119389606	99
1	565	59.931119389606	100
1	565	59.931119389606	101
1	583	60.994457810378	102
1	583	60.994457810378	103
1	583	60.994457810378	104
1	601	62.064239948074	105
1	601	62.064239948074	106
1	601	62.064239948074	107
1	619	63.724530122817	108
1	619	63.724530122817	109
1	619	63.724530122817	110
1	637	65.264851878627	111
1	637	65.264851878627	112
1	637	65.264851878627	113
1	655	66.634852764954	114
1	655	66.634852764954	115
1	655	66.634852764954	116
1	673	68.125469820423	117
1	673	68.125469820423	118
1	673	68.125469820423	119
1	691	69.539308317121	120
1	691	69.539308317121	121
1	691	69.539308317121	122
1	709	70.771544837323	123
1	709	70.771544837323	124
1	709	70.771544837323	125
1	727	72.691180129647	126
1	727	72.691180129647	127
1	727	72.691180129647	128
1	745	74.22162549947	129
1	745	74.22162549947	130
1	745	74.22162549947	131
1	763	75.72901230656	132
1	763	75.72901230656	133
1	763	75.72901230656	134
1	781	77.012070023361	135
1	781	77.012070023361	136
1	781	77.012070023361	137
1	799	78.350691402081	138
1	799	78.350691402081	139
1	799	78.350691402081	140
1	817	79.485331463307	141
1	817	79.485331463307	142
1	817	79.485331463307	143
1	835	81.074752504439	144
1	835	81.074752504439	145
1	835	81.074752504439	146
1	857	84.986866130107	147
1	857	84.986866130107	148
1	857	84.986866130107	149
1	877	88.113842213279	150
1	877	88.113842213279	151
1	877	88.113842213279	152
1	895	89.927881706369	153
1	895	89.927881706369	154
1	895	89.927881706369	155
1	913	91.272799068768	156
1	913	91.272799068768	157
1	913	91.272799068768	158
1	931	92.854439437236	159
1	931	92.854439437236	160
1	931	92.854439437236	161
1	949	93.9192298238	162
1	949	93.9192298238	163
1	949	93.9192298238	164
1	967	95.539647695959	165
1	967	95.539647695959	166
1	967	95.539647695959	167
1	985	96.863750157434	168
1	985	96.863750157434	169
1	985	96.863750157434	170
1	1003	98.761090386052	171
1	1003	98.761090386052	172
1	1003	98.761090386052	173
1	1009	100.726317882274	174
1	1009	100.726317882274	175
1	1009	100.726317882274	176
1	1029	104.099014694787	177
1	1029	104.099014694787	178
1	1029	104.099014694787	179
1	1049	107.581216023871	180
1	1049	107.581216023871	181
1	1049	107.581216023871	182
1	1067	108.864053047569	183
1	1067	108.864053047569	184
1	1067	108.864053047569	185
1	1085	110.348712236025	186
1	1085	110.348712236025	187
1	1085	110.348712236025	188
1	1103	111.561529265368	189
1	1103	111.561529265368	190
1	1103	111.561529265368	191
1	1121	113.177962428721	192
1	1121	113.177962428721	193
1	1121	113.177962428721	194
1	1127	115.04191516034	195
1	1127	115.04191516034	196
1	1127	115.04191516034	197
1	1145	116.083952544217	198
1	1145	116.083952544217	199
1	1145	116.083952544217	200
1	1155	117.139741533584	201
1	1155	117.139741533584	202
1	1155	117.139741533584	203
1	1173	118.712452113494	204
1	1173	118.712452113494	205
1	1173	118.712452113494	206
1	1183	120.183569140422	207
1	1183	120.183569140422	208
1	1183	120.183569140422	209
1	1201	121.76462726816	210
1	1201	121.76462726816	211
1	1201	121.76462726816	212
1	1219	123.543929905765	213
1	1219	123.543929905765	214
1	1219	123.543929905765	215
1	1243	129.273372260346	216
1	1243	129.273372260346	217
1	1243	129.273372260346	218
1	1261	130.344757722548	219
1	1261	130.344757722548	220
1	1261	130.344757722548	221
1	1281	132.509232933621	222
1	1281	132.509232933621	223
1	1281	132.509232933621	224
1	1299	133.735933373741	225
1	1299	133.735933373741	226
1	1299	133.735933373741	227
1	1317	135.449900501637	228
1	1317	135.449900501637	229
1	1317	135.449900501637	230
1	1335	137.109886741718	231
1	1335	137.109886741718	232
1	1335	137.109886741718	233
1	1353	139.082519937745	234
1	1353	139.082519937745	235
1	1353	139.082519937745	236
1	1371	140.859752269956	237
1	1371	140.859752269956	238
1	1371	140.859752269956	239
1	1391	144.04192404556	240
1	1391	144.04192404556	241
1	1391	144.04192404556	242
1	1411	146.987397469495	243
1	1411	146.987397469495	244
1	1411	146.987397469495	245
1	1429	148.130720689143	246
1	1429	148.130720689143	247
1	1429	148.130720689143	248
1	1447	149.425524669229	249
1	1447	149.425524669229	250
1	1447	149.425524669229	251
1	1467	152.783846744219	252
1	1467	152.783846744219	253
1	1467	152.783846744219	254
1	1487	155.295453142247	255
1	1487	155.295453142247	256
1	1487	155.295453142247	257
1	1509	160.241534024772	258
1	1509	160.241534024772	259
1	1509	160.241534024772	260
1	1527	162.082441499999	261
1	1527	162.082441499999	262
1	1527	162.082441499999	263
1	1545	164.084378823392	264
1	1545	164.084378823392	265
1	1545	164.084378823392	266
1	1565	166.371599724009	267
1	1565	166.371599724009	268
1	1565	166.371599724009	269
1	1583	167.58529728071	270
1	1583	167.58529728071	271
1	1583	167.58529728071	272
1	1601	168.691125687493	273
1	1601	168.691125687493	274
1	1601	168.691125687493	275
1	1619	170.499196503591	276
1	1619	170.499196503591	277
1	1619	170.499196503591	278
1	1637	172.344588598649	279
1	1637	172.344588598649	280
1	1637	172.344588598649	281
1	1655	173.554917764222	282
1	1655	173.554917764222	283
1	1655	173.554917764222	284
1	1673	175.151896970709	285
1	1673	175.151896970709	286
1	1673	175.151896970709	287
1	1691	176.82551274384	288
1	1691	176.82551274384	289
1	1691	176.82551274384	290
1	1709	178.240137785073	291
1	1709	178.240137785073	292
1	1709	178.240137785073	293
1	1727	180.194525309678	294
1	1727	180.194525309678	295
1	1727	180.194525309678	296
1	1747	183.049951373365	297
1	1747	183.049951373365	298
1	1747	183.049951373365	299
1	1765	184.534307444972	300
1	1765	184.534307444972	301
1	1765	184.534307444972	302
1	1783	185.812568893157	303
1	1783	185.812568893157	304
1	1783	185.812568893157	305
1	1801	187.057525108329	306
1	1801	187.057525108329	307
1	1801	187.057525108329	308
1	1819	188.565113067981	309
1	1819	188.565113067981	310
1	1819	188.565113067981	311
1	1837	189.67244905083	312
1	1837	189.67244905083	313
1	1837	189.67244905083	314
1	1857	193.110837320943	315
1	1857	193.110837320943	316
1	1857	193.110837320943	317
1	1875	194.524987481557	318
1	1875	194.524987481557	319
1	1875	194.524987481557	320
1	1895	197.185922698009	321
1	1895	197.185922698009	322
1	1895	197.185922698009	323
1	1913	198.882122324193	324
1	1913	198.882122324193	325
1	1913	198.882122324193	326
1	1933	201.700261568298	327
1	1933	201.700261568298	328
1	1933	201.700261568298	329
1	1953	205.276847888544	330
1	1953	205.276847888544	331
1	1953	205.276847888544	332
1	1971	206.488811270662	333
1	1971	206.488811270662	334
1	1971	206.488811270662	335
1	1977	207.926195550256	336
1	1977	207.926195550256	337
1	1977	207.926195550256	338
1	1995	209.300683822881	339
1	1995	209.300683822881	340
1	1995	209.300683822881	341
1	2013	210.447049735972	342
1	2013	210.447049735972	343
1	2013	210.447049735972	344
1	2033	213.442738078934	345
1	2033	213.442738078934	346
1	2033	213.442738078934	347
1	2051	214.603101375014	348
1	2051	214.603101375014	349
1	2051	214.603101375014	350
1	2069	215.957670364378	351
1	2069	215.957670364378	352
1	2069	215.957670364378	353
1	2087	217.618019564973	354
1	2087	217.618019564973	355
1	2087	217.618019564973	356
1	2105	219.241803019976	357
1	2105	219.241803019976	358
1	2105	219.241803019976	359
1	2123	220.456971910711	360
1	2123	220.456971910711	361
1	2123	220.456971910711	362
1	2141	221.505935400161	363
1	2141	221.505935400161	364
1	2141	221.505935400161	365
1	2159	223.225502009678	366
1	2159	223.225502009678	367
1	2159	223.225502009678	368
1	2177	225.074009318657	369
1	2177	225.074009318657	370
1	2177	225.074009318657	371
1	2195	227.0842402495	372
1	2195	227.0842402495	373
1	2195	227.0842402495	374
1	2213	229.056785975796	375
1	2213	229.056785975796	376
1	2213	229.056785975796	377
1	2231	230.464727858864	378
1	2231	230.464727858864	379
1	2231	230.464727858864	380
1	2249	232.398374089435	381
1	2249	232.398374089435	382
1	2249	232.398374089435	383
1	2267	233.494786391259	384
1	2267	233.494786391259	385
1	2267	233.494786391259	386
1	2285	234.718627856793	387
1	2285	234.718627856793	388
1	2285	234.718627856793	389
1	2303	235.991391089756	390
1	2303	235.991391089756	391
1	2303	235.991391089756	392
1	2321	238.030242913279	393
1	2321	238.030242913279	394
1	2321	238.030242913279	395
1	2339	239.445028309202	396
1	2339	239.445028309202	397
1	2339	239.445028309202	398
2	7	0.227595799025	0
2	7	0.227595799025	1
2	7	0.227595799025	2
2	29	2.155392780518	3
2	29	2.155392780518	4
2	29	2.155392780518	5
2	39	3.756148753667	6
2	39	3.756148753667	7
2	39	3.756148753667	8
2	57	5.367029717122	9
2	57	5.367029717122	10
2	57	5.367029717122	11
2	75	6.431726956575	12
2	75	6.431726956575	13
2	75	6.431726956575	14
2	93	7.661577390934	15
2	93	7.661577390934	16
2	93	7.661577390934	17
2	113	11.048660142751	18
2	113	11.048660142751	19
2	113	11.048660142751	20
2	131	12.196212066995	21
2	131	12.196212066995	22
2	131	12.196212066995	23
2	155	14.646316740677	24
2	155	14.646316740677	25
2	155	14.646316740677	26
2	174	16.601964869908	27
2	174	16.601964869908	28
2	174	16.601964869908	29
2	197	20.450353062617	30
2	197	20.450353062617	31
2	197	20.450353062617	32
2	211	22.431512564785	33
2	211	22.431512564785	34
2	211	22.431512564785	35
2	230	23.498100967288	36
2	230	23.498100967288	37
2	230	23.498100967288	38
2	263	28.206324281478	39
2	263	28.206324281478	40
2	263	28.206324281478	41
2	282	32.919393848242	42
2	282	32.919393848242	43
2	282	32.919393848242	44
2	299	34.821966758523	45
2	299	34.821966758523	46
2	299	34.821966758523	47
2	318	35.9686818511	48
2	318	35.9686818511	49
2	318	35.9686818511	50
2	335	37.731269728326	51
2	335	37.731269728326	52
2	335	37.731269728326	53
2	354	39.602564477479	54
2	354	39.602564477479	55
2	354	39.602564477479	56
2	379	41.598315112067	57
2	379	41.598315112067	58
2	379	41.598315112067	59
2	397	42.783120127856	60
2	397	42.783120127856	61
2	397	42.783120127856	62
2	409	45.542750822575	63
2	409	45.542750822575	64
2	409	45.542750822575	65
2	431	46.853994652882	66
2	431	46.853994652882	67
2	431	46.853994652882	68
2	445	47.883251292655	69
2	445	47.883251292655	70
2	445	47.883251292655	71
2	463	49.151220945664	72
2	463	49.151220945664	73
2	463	49.151220945664	74
2	484	51.717793076037	75
2	484	51.717793076037	76
2	484	51.717793076037	77
2	501	53.087056795722	78
2	501	53.087056795722	79
2	501	53.087056795722	80
2	516	55.033363914362	81
2	516	55.033363914362	82
2	516	55.033363914362	83
2	541	56.470609514532	84
2	541	56.470609514532	85
2	541	56.470609514532	86
2	551	58.012982604993	87
2	551	58.012982604993	88
2	551	58.012982604993	89
2	570	59.951647700399	90
2	570	59.951647700399	91
2	570	59.951647700399	92
2	591	61.023071204321	93
2	591	61.023071204321	94
2	591	61.023071204321	95
2	613	62.103816186602	96
2	613	62.103816186602	97
2	613	62.103816186602	98
2	627	63.746812772452	99
2	627	63.746812772452	100
2	627	63.746812772452	101
2	645	65.291872278603	102
2	645	65.291872278603	103
2	645	65.291872278603	104
2	660	66.668782285499	105
2	660	66.668782285499	106
2	660	66.668782285499	107
2	677	68.141146755043	108
2	677	68.141146755043	109
2	677	68.141146755043	110
2	695	69.594826881386	111
2	695	69.594826881386	112
2	695	69.594826881386	113
2	713	70.792023037172	114
2	713	70.792023037172	115
2	713	70.792023037172	116
2	732	72.724924713318	117
2	732	72.724924713318	118
2	732	72.724924713318	119
2	754	74.261372926521	120
2	754	74.261372926521	121
2	754	74.261372926521	122
2	772	75.763594433035	123
2	772	75.763594433035	124
2	772	75.763594433035	125
2	785	77.038712312488	126
2	785	77.038712312488	127
2	785	77.038712312488	128
2	804	78.361393568625	129
2	804	78.361393568625	130
2	804	78.361393568625	131
2	821	79.499394656403	132
2	821	79.499394656403	133
2	821	79.499394656403	134
2	843	81.103311764438	135
2	843	81.103311764438	136
2	843	81.103311764438	137
2	861	84.997338870653	138
2	861	84.997338870653	139
2	861	84.997338870653	140
2	881	88.128052371348	141
2	881	88.128052371348	142
2	881	88.128052371348	143
2	900	89.952373766678	144
2	900	89.952373766678	145
2	900	89.952373766678	146
2	925	91.32612116841	147
2	925	91.32612116841	148
2	925	91.32612116841	149
2	935	92.869336699755	150
2	935	92.869336699755	151
2	935	92.869336699755	152
2	961	94.000401324643	153
2	961	94.000401324643	154
2	961	94.000401324643	155
2	972	95.566015197093	156
2	972	95.566015197093	157
2	972	95.566015197093	158
2	990	96.882369853113	159
2	990	96.882369853113	160
2	990	96.882369853113	161
2	1013	100.751655969453	162
2	1013	100.751655969453	163
2	1013	100.751655969453	164
2	1033	104.109662766353	165
2	1033	104.109662766353	166
2	1033	104.109662766353	167
2	1054	107.597060021777	168
2	1054	107.597060021777	169
2	1054	107.597060021777	170
2	1072	108.892154925956	171
2	1072	108.892154925956	172
2	1072	108.892154925956	173
2	1089	110.360313754298	174
2	1089	110.360313754298	175
2	1089	110.360313754298	176
2	1107	111.577235158781	177
2	1107	111.577235158781	178
2	1107	111.577235158781	179
2	1131	115.055900647838	180
2	1131	115.055900647838	181
2	1131	115.055900647838	182
2	1160	117.161728998649	183
2	1160	117.161728998649	184
2	1160	117.161728998649	185
2	1187	120.195271955794	186
2	1187	120.195271955794	187
2	1187	120.195271955794	188
2	1205	121.779383622622	189
2	1205	121.779383622622	190
2	1205	121.779383622622	191
2	1231	123.607849609786	192
2	1231	123.607849609786	193
2	1231	123.607849609786	194
2	1247	129.283696370334	195
2	1247	129.283696370334	196
2	1247	129.283696370334	197
2	1265	130.35821005475	198
2	1265	130.35821005475	199
2	1265	130.35821005475	200
2	1293	132.561314106808	201
2	1293	132.561314106808	202
2	1293	132.561314106808	203
2	1304	133.75463623211	204
2	1304	133.75463623211	205
2	1304	133.75463623211	206
2	1322	135.469115599478	207
2	1322	135.469115599478	208
2	1322	135.469115599478	209
2	1339	137.121897437962	210
2	1339	137.121897437962	211
2	1339	137.121897437962	212
2	1357	139.105240209696	213
2	1357	139.105240209696	214
2	1357	139.105240209696	215
2	1379	140.896132300661	216
2	1379	140.896132300661	217
2	1379	140.896132300661	218
2	1396	144.053882556967	219
2	1396	144.053882556967	220
2	1396	144.053882556967	221
2	1415	147.00712289089	222
2	1415	147.00712289089	223
2	1415	147.00712289089	224
2	1433	148.143959407338	225
2	1433	148.143959407338	226
2	1433	148.143959407338	227
2	1452	149.450017139565	228
2	1452	149.450017139565	229
2	1452	149.450017139565	230
2	1476	152.826312740413	231
2	1476	152.826312740413	232
2	1476	152.826312740413	233
2	1499	155.350912230426	234
2	1499	155.350912230426	235
2	1499	155.350912230426	236
2	1513	160.265123239279	237
2	1513	160.265123239279	238
2	1513	160.265123239279	239
2	1532	162.101720341239	240
2	1532	162.101720341239	241
2	1532	162.101720341239	242
2	1549	164.09494143524	243
2	1549	164.09494143524	244
2	1549	164.09494143524	245
2	1569	166.385336611703	246
2	1569	166.385336611703	247
2	1569	166.385336611703	248
2	1587	167.600614972771	249
2	1587	167.600614972771	250
2	1587	167.600614972771	251
2	1605	168.701591494284	252
2	1605	168.701591494284	253
2	1605	168.701591494284	254
2	1627	170.530735414298	255
2	1627	170.530735414298	256
2	1627	170.530735414298	257
2	1645	172.369143884384	258
2	1645	172.369143884384	259
2	1645	172.369143884384	260
2	1660	173.567918530628	261
2	1660	173.567918530628	262
2	1660	173.567918530628	263
2	1681	175.183779653725	264
2	1681	175.183779653725	265
2	1681	175.183779653725	266
2	1699	176.901561386792	267
2	1699	176.901561386792	268
2	1699	176.901561386792	269
2	1717	178.28142036017	270
2	1717	178.28142036017	271
2	1717	178.28142036017	272
2	1732	180.22374592453	273
2	1732	180.22374592453	274
2	1732	180.22374592453	275
2	1752	183.067438005122	276
2	1752	183.067438005122	277
2	1752	183.067438005122	278
2	1770	184.548848925866	279
2	1770	184.548848925866	280
2	1770	184.548848925866	281
2	1787	185.828860941622	282
2	1787	185.828860941622	283
2	1787	185.828860941622	284
2	1806	187.079100091311	285
2	1806	187.079100091311	286
2	1806	187.079100091311	287
2	1824	188.595949397258	288
2	1824	188.595949397258	289
2	1824	188.595949397258	290
2	1842	189.686823097671	291
2	1842	189.686823097671	292
2	1842	189.686823097671	293
2	1861	193.126849739613	294
2	1861	193.126849739613	295
2	1861	193.126849739613	296
2	1879	194.542250706116	297
2	1879	194.542250706116	298
2	1879	194.542250706116	299
2	1899	197.19752947053	300
2	1899	197.19752947053	301
2	1899	197.19752947053	302
2	1918	198.893826591742	303
2	1918	198.893826591742	304
2	1918	198.893826591742	305
2	1937	201.723733078253	306
2	1937	201.723733078253	307
2	1937	201.723733078253	308
2	1958	205.289839473338	309
2	1958	205.289839473338	310
2	1958	205.289839473338	311
2	1981	207.939548979416	312
2	1981	207.939548979416	313
2	1981	207.939548979416	314
2	2000	209.322158492934	315
2	2000	209.322158492934	316
2	2000	209.322158492934	317
2	2022	210.479678358153	318
2	2022	210.479678358153	319
2	2022	210.479678358153	320
2	2038	213.464093067194	321
2	2038	213.464093067194	322
2	2038	213.464093067194	323
2	2055	214.617083972611	324
2	2055	214.617083972611	325
2	2055	214.617083972611	326
2	2073	215.974404465533	327
2	2073	215.974404465533	328
2	2073	215.974404465533	329
2	2091	217.640917129423	330
2	2091	217.640917129423	331
2	2091	217.640917129423	332
2	2114	219.276049471252	333
2	2114	219.276049471252	334
2	2114	219.276049471252	335
2	2131	220.498005245922	336
2	2131	220.498005245922	337
2	2131	220.498005245922	338
2	2146	221.517985149849	339
2	2146	221.517985149849	340
2	2146	221.517985149849	341
2	2164	223.254066596354	342
2	2164	223.254066596354	343
2	2164	223.254066596354	344
2	2185	225.122486001245	345
2	2185	225.122486001245	346
2	2185	225.122486001245	347
2	2199	227.102378832846	348
2	2199	227.102378832846	349
2	2199	227.102378832846	350
2	2218	229.073577595034	351
2	2218	229.073577595034	352
2	2218	229.073577595034	353
2	2235	230.48264179501	354
2	2235	230.48264179501	355
2	2235	230.48264179501	356
2	2257	232.435884890118	357
2	2257	232.435884890118	358
2	2257	232.435884890118	359
2	2271	233.509368507869	360
2	2271	233.509368507869	361
2	2271	233.509368507869	362
2	2297	234.779248466815	363
2	2297	234.779248466815	364
2	2297	234.779248466815	365
2	2307	236.005386698385	366
2	2307	236.005386698385	367
2	2307	236.005386698385	368
2	2325	238.040483544514	369
2	2325	238.040483544514	370
2	2325	238.040483544514	371
2	2344	239.469345454565	372
2	2344	239.469345454565	373
2	2344	239.469345454565	374
3	8	0.228177698444	0
3	8	0.228177698444	1
3	8	0.228177698444	2
3	25	2.134286098792	3
3	25	2.134286098792	4
3	25	2.134286098792	5
3	43	3.781804313011	6
3	43	3.781804313011	7
3	43	3.781804313011	8
3	58	5.374999045046	9
3	58	5.374999045046	10
3	58	5.374999045046	11
3	80	6.452219611176	12
3	80	6.452219611176	13
3	80	6.452219611176	14
3	94	7.67025627759	15
3	94	7.67025627759	16
3	94	7.67025627759	17
3	118	11.068064117997	18
3	118	11.068064117997	19
3	118	11.068064117997	20
3	135	12.206890222704	21
3	135	12.206890222704	22
3	135	12.206890222704	23
3	145	13.554503115709	24
3	145	13.554503115709	25
3	145	13.554503115709	26
3	156	14.651330440782	27
3	156	14.651330440782	28
3	156	14.651330440782	29
3	173	16.592039137309	30
3	173	16.592039137309	31
3	173	16.592039137309	32
3	198	20.454260176332	33
3	198	20.454260176332	34
3	198	20.454260176332	35
3	216	22.454717582899	36
3	216	22.454717582899	37
3	216	22.454717582899	38
3	229	23.496533185541	39
3	229	23.496533185541	40
3	229	23.496533185541	41
3	247	24.982888099798	42
3	247	24.982888099798	43
3	247	24.982888099798	44
3	259	28.190502126682	45
3	259	28.190502126682	46
3	259	28.190502126682	47
3	281	32.909418828983	48
3	281	32.909418828983	49
3	281	32.909418828983	50
3	307	34.868083760181	51
3	307	34.868083760181	52
3	307	34.868083760181	53
3	317	35.966956292066	54
3	317	35.966956292066	55
3	317	35.966956292066	56
3	339	37.746839592956	57
3	339	37.746839592956	58
3	339	37.746839592956	59
3	353	39.601027293459	60
3	353	39.601027293459	61
3	353	39.601027293459	62
3	371	41.561227732398	63
3	371	41.561227732398	64
3	371	41.561227732398	65
3	389	42.751392778025	66
3	389	42.751392778025	67
3	389	42.751392778025	68
3	410	45.54459503768	69
3	410	45.54459503768	70
3	410	45.54459503768	71
3	427	46.827805274751	72
3	427	46.827805274751	73
3	427	46.827805274751	74
3	453	47.922341564546	75
3	453	47.922341564546	76
3	453	47.922341564546	77
3	464	49.156552809715	78
3	464	49.156552809715	79
3	464	49.156552809715	80
3	483	51.716062079867	81
3	483	51.716062079867	82
3	483	51.716062079867	83
3	497	53.071750559935	84
3	497	53.071750559935	85
3	497	53.071750559935	86
3	515	55.023439833238	87
3	515	55.023439833238	88
3	515	55.023439833238	89
3	533	56.444092810847	90
3	533	56.444092810847	91
3	533	56.444092810847	92
3	552	58.016328272022	93
3	552	58.016328272022	94
3	552	58.016328272022	95
3	569	59.948167682433	96
3	569	59.948167682433	97
3	569	59.948167682433	98
3	587	61.010900693335	99
3	587	61.010900693335	100
3	587	61.010900693335	101
3	605	62.080718873374	102
3	605	62.080718873374	103
3	605	62.080718873374	104
3	623	63.735758905115	105
3	623	63.735758905115	106
3	623	63.735758905115	107
3	641	65.280566065752	108
3	641	65.280566065752	109
3	641	65.280566065752	110
3	659	66.668767964224	111
3	659	66.668767964224	112
3	659	66.668767964224	113
3	682	68.154953478558	114
3	682	68.154953478558	115
3	682	68.154953478558	116
3	699	69.60546298121	117
3	699	69.60546298121	118
3	699	69.60546298121	119
3	718	70.80929518179	120
3	718	70.80929518179	121
3	718	70.80929518179	122
3	731	72.717098174499	123
3	731	72.717098174499	124
3	731	72.717098174499	125
3	749	74.2401100098	126
3	749	74.2401100098	127
3	749	74.2401100098	128
3	767	75.750196267878	129
3	767	75.750196267878	130
3	767	75.750196267878	131
3	789	77.05459016214	132
3	789	77.05459016214	133
3	789	77.05459016214	134
3	803	78.360811331622	135
3	803	78.360811331622	136
3	803	78.360811331622	137
3	822	79.503804832665	138
3	822	79.503804832665	139
3	822	79.503804832665	140
3	839	81.087369609532	141
3	839	81.087369609532	142
3	839	81.087369609532	143
3	869	85.024416775201	144
3	869	85.024416775201	145
3	869	85.024416775201	146
3	882	88.136123045403	147
3	882	88.136123045403	148
3	882	88.136123045403	149
3	899	89.944056547864	150
3	899	89.944056547864	151
3	899	89.944056547864	152
3	917	91.286282835777	153
3	917	91.286282835777	154
3	917	91.286282835777	155
3	936	92.870070218892	156
3	936	92.870070218892	157
3	936	92.870070218892	158
3	953	93.952612744871	159
3	953	93.952612744871	160
3	953	93.952612744871	161
3	971	95.560793783845	162
3	971	95.560793783845	163
3	971	95.560793783845	164
3	989	96.878185224147	165
3	989	96.878185224147	166
3	989	96.878185224147	167
3	1014	100.760262502758	168
3	1014	100.760262502758	169
3	1014	100.760262502758	170
3	1034	104.109685705947	171
3	1034	104.109685705947	172
3	1034	104.109685705947	173
3	1053	107.591290189185	174
3	1053	107.591290189185	175
3	1053	107.591290189185	176
3	1071	108.889682509702	177
3	1071	108.889682509702	178
3	1071	108.889682509702	179
3	1090	110.366820969542	180
3	1090	110.366820969542	181
3	1090	110.366820969542	182
3	1115	111.609843578604	183
3	1115	111.609843578604	184
3	1115	111.609843578604	185
3	1135	115.072324505704	186
3	1135	115.072324505704	187
3	1135	115.072324505704	188
3	1149	116.106696310207	189
3	1149	116.106696310207	190
3	1149	116.106696310207	191
3	1159	117.158019265636	192
3	1159	117.158019265636	193
3	1159	117.158019265636	194
3	1177	118.727161192579	195
3	1177	118.727161192579	196
3	1177	118.727161192579	197
3	1188	120.204803151258	198
3	1188	120.204803151258	199
3	1188	120.204803151258	200
3	1206	121.785961868343	201
3	1206	121.785961868343	202
3	1206	121.785961868343	203
3	1223	123.554832472979	204
3	1223	123.554832472979	205
3	1223	123.554832472979	206
3	1251	129.303249796024	207
3	1251	129.303249796024	208
3	1251	129.303249796024	209
3	1273	130.405100114172	210
3	1273	130.405100114172	211
3	1273	130.405100114172	212
3	1285	132.522427157197	213
3	1285	132.522427157197	214
3	1285	132.522427157197	215
3	1303	133.746682631471	216
3	1303	133.746682631471	217
3	1303	133.746682631471	218
3	1321	135.466395809668	219
3	1321	135.466395809668	220
3	1321	135.466395809668	221
3	1343	137.135874963026	222
3	1343	137.135874963026	223
3	1343	137.135874963026	224
3	1361	139.127461963468	225
3	1361	139.127461963468	226
3	1361	139.127461963468	227
3	1375	140.881080222853	228
3	1375	140.881080222853	229
3	1375	140.881080222853	230
3	1395	144.053307400789	231
3	1395	144.053307400789	232
3	1395	144.053307400789	233
3	1416	147.009969581378	234
3	1416	147.009969581378	235
3	1416	147.009969581378	236
3	1437	148.158368336417	237
3	1437	148.158368336417	238
3	1437	148.158368336417	239
3	1451	149.44800851132	240
3	1451	149.44800851132	241
3	1451	149.44800851132	242
3	1471	152.804761226124	243
3	1471	152.804761226124	244
3	1471	152.804761226124	245
3	1491	155.315576913196	246
3	1491	155.315576913196	247
3	1491	155.315576913196	248
3	1517	160.280366878075	249
3	1517	160.280366878075	250
3	1517	160.280366878075	251
3	1531	162.095397504324	252
3	1531	162.095397504324	253
3	1531	162.095397504324	254
3	1550	164.101453124336	255
3	1550	164.101453124336	256
3	1550	164.101453124336	257
3	1577	166.411859018587	258
3	1577	166.411859018587	259
3	1577	166.411859018587	260
3	1588	167.60816056215	261
3	1588	167.60816056215	262
3	1588	167.60816056215	263
3	1606	168.701650373567	264
3	1606	168.701650373567	265
3	1606	168.701650373567	266
3	1623	170.512160434298	267
3	1623	170.512160434298	268
3	1623	170.512160434298	269
3	1641	172.356065821576	270
3	1641	172.356065821576	271
3	1641	172.356065821576	272
3	1659	173.567560828497	273
3	1659	173.567560828497	274
3	1659	173.567560828497	275
3	1677	175.169063667547	276
3	1677	175.169063667547	277
3	1677	175.169063667547	278
3	1695	176.864524130115	279
3	1695	176.864524130115	280
3	1695	176.864524130115	281
3	1713	178.256435681998	282
3	1713	178.256435681998	283
3	1713	178.256435681998	284
3	1731	180.214262769211	285
3	1731	180.214262769211	286
3	1731	180.214262769211	287
3	1751	183.066552007738	288
3	1751	183.066552007738	289
3	1751	183.066552007738	290
3	1769	184.545044292108	291
3	1769	184.545044292108	292
3	1769	184.545044292108	293
3	1791	185.843046357054	294
3	1791	185.843046357054	295
3	1791	185.843046357054	296
3	1805	187.072141331321	297
3	1805	187.072141331321	298
3	1805	187.072141331321	299
3	1823	188.595538916842	300
3	1823	188.595538916842	301
3	1823	188.595538916842	302
3	1841	189.682584068445	303
3	1841	189.682584068445	304
3	1841	189.682584068445	305
3	1862	193.129941027128	306
3	1862	193.129941027128	307
3	1862	193.129941027128	308
3	1880	194.54479583553	309
3	1880	194.54479583553	310
3	1880	194.54479583553	311
3	1900	197.197924111582	312
3	1900	197.197924111582	313
3	1900	197.197924111582	314
3	1917	198.892468809492	315
3	1917	198.892468809492	316
3	1917	198.892468809492	317
3	1941	201.746045878687	318
3	1941	201.746045878687	319
3	1941	201.746045878687	320
3	1957	205.288849762922	321
3	1957	205.288849762922	322
3	1957	205.288849762922	323
3	1985	207.959548843348	324
3	1985	207.959548843348	325
3	1985	207.959548843348	326
3	1999	209.31611957969	327
3	1999	209.31611957969	328
3	1999	209.31611957969	329
3	2017	210.457111468892	330
3	2017	210.457111468892	331
3	2017	210.457111468892	332
3	2037	213.454606827693	333
3	2037	213.454606827693	334
3	2037	213.454606827693	335
3	2060	214.638922755878	336
3	2060	214.638922755878	337
3	2060	214.638922755878	338
3	2078	215.994411641867	339
3	2078	215.994411641867	340
3	2078	215.994411641867	341
3	2092	217.643437098764	342
3	2092	217.643437098764	343
3	2092	217.643437098764	344
3	2109	219.256996365169	345
3	2109	219.256996365169	346
3	2109	219.256996365169	347
3	2127	220.46898227817	348
3	2127	220.46898227817	349
3	2127	220.46898227817	350
3	2145	221.516082771496	351
3	2145	221.516082771496	352
3	2145	221.516082771496	353
3	2163	223.247478445182	354
3	2163	223.247478445182	355
3	2163	223.247478445182	356
3	2181	225.092349839418	357
3	2181	225.092349839418	358
3	2181	225.092349839418	359
3	2207	227.149849639481	360
3	2207	227.149849639481	361
3	2207	227.149849639481	362
3	2217	229.070247900318	363
3	2217	229.070247900318	364
3	2217	229.070247900318	365
3	2239	230.493349789899	366
3	2239	230.493349789899	367
3	2239	230.493349789899	368
3	2253	232.415493311248	369
3	2253	232.415493311248	370
3	2253	232.415493311248	371
3	2279	233.534343706336	372
3	2279	233.534343706336	373
3	2279	233.534343706336	374
3	2289	234.732507994439	375
3	2289	234.732507994439	376
3	2289	234.732507994439	377
3	2311	236.024707770056	378
3	2311	236.024707770056	379
3	2311	236.024707770056	380
3	2333	238.068707776503	381
3	2333	238.068707776503	382
3	2333	238.068707776503	383
3	2343	239.467193039395	384
3	2343	239.467193039395	385
3	2343	239.467193039395	386
4	15	0.238240195904	0
4	15	0.238240195904	1
4	15	0.238240195904	2
4	47	3.811925080477	3
4	47	3.811925080477	4
4	47	3.811925080477	5
4	65	5.4047670645	6
4	65	5.4047670645	7
4	65	5.4047670645	8
4	79	6.446783679219	9
4	79	6.446783679219	10
4	79	6.446783679219	11
4	101	7.681383839634	12
4	101	7.681383839634	13
4	101	7.681383839634	14
4	117	11.064051987478	15
4	117	11.064051987478	16
4	117	11.064051987478	17
4	163	14.66249373555	18
4	163	14.66249373555	19
4	163	14.66249373555	20
4	181	16.612549969623	21
4	181	16.612549969623	22
4	181	16.612549969623	23
4	215	22.452865910598	24
4	215	22.452865910598	25
4	215	22.452865910598	26
4	237	23.531484186856	27
4	237	23.531484186856	28
4	237	23.531484186856	29
4	264	28.211485002041	30
4	264	28.211485002041	31
4	264	28.211485002041	32
4	286	32.926670816425	33
4	286	32.926670816425	34
4	286	32.926670816425	35
4	303	34.845439215733	36
4	303	34.845439215733	37
4	303	34.845439215733	38
4	325	35.980446656249	39
4	325	35.980446656249	40
4	325	35.980446656249	41
4	340	37.749413436252	42
4	340	37.749413436252	43
4	340	37.749413436252	44
4	358	39.611228732384	45
4	358	39.611228732384	46
4	358	39.611228732384	47
4	375	41.580690396689	48
4	375	41.580690396689	49
4	375	41.580690396689	50
4	393	42.765449274974	51
4	393	42.765449274974	52
4	393	42.765449274974	53
4	417	45.558856163195	54
4	417	45.558856163195	55
4	417	45.558856163195	56
4	435	46.871492133082	57
4	435	46.871492133082	58
4	435	46.871492133082	59
4	449	47.898981335389	60
4	449	47.898981335389	61
4	449	47.898981335389	62
4	468	49.163858715903	63
4	468	49.163858715903	64
4	468	49.163858715903	65
4	502	53.091755181552	66
4	502	53.091755181552	67
4	502	53.091755181552	68
4	523	55.055423029349	69
4	523	55.055423029349	70
4	523	55.055423029349	71
4	537	56.459901698824	72
4	537	56.459901698824	73
4	537	56.459901698824	74
4	559	58.042635256933	75
4	559	58.042635256933	76
4	559	58.042635256933	77
4	574	59.960628806597	78
4	574	59.960628806597	79
4	574	59.960628806597	80
4	595	61.039850163615	81
4	595	61.039850163615	82
4	595	61.039850163615	83
4	609	62.091901877744	84
4	609	62.091901877744	85
4	609	62.091901877744	86
4	631	63.764352585768	87
4	631	63.764352585768	88
4	631	63.764352585768	89
4	649	65.315548936486	90
4	649	65.315548936486	91
4	649	65.315548936486	92
4	667	66.685932048657	93
4	667	66.685932048657	94
4	667	66.685932048657	95
4	681	68.154533397403	96
4	681	68.154533397403	97
4	681	68.154533397403	98
4	700	69.615296792316	99
4	700	69.615296792316	100
4	700	69.615296792316	101
4	717	70.808693292841	102
4	717	70.808693292841	103
4	717	70.808693292841	104
4	736	72.728956866889	105
4	736	72.728956866889	106
4	736	72.728956866889	107
4	753	74.255428236396	108
4	753	74.255428236396	109
4	753	74.255428236396	110
4	771	75.761048732008	111
4	771	75.761048732008	112
4	771	75.761048732008	113
4	790	77.060532615317	114
4	790	77.060532615317	115
4	790	77.060532615317	116
4	808	78.371013987092	117
4	808	78.371013987092	118
4	808	78.371013987092	119
4	826	79.51147342223	120
4	826	79.51147342223	121
4	826	79.51147342223	122
4	847	81.116939645002	123
4	847	81.116939645002	124
4	847	81.116939645002	125
4	865	85.013957061466	126
4	865	85.013957061466	127
4	865	85.013957061466	128
4	889	88.160561943223	129
4	889	88.160561943223	130
4	889	88.160561943223	131
4	907	89.965268666622	132
4	907	89.965268666622	133
4	907	89.965268666622	134
4	921	91.307209266155	135
4	921	91.307209266155	136
4	921	91.307209266155	137
4	943	92.881843333865	138
4	943	92.881843333865	139
4	943	92.881843333865	140
4	957	93.968733195968	141
4	957	93.968733195968	142
4	957	93.968733195968	143
4	979	95.585382303021	144
4	979	95.585382303021	145
4	979	95.585382303021	146
4	994	96.891759865964	147
4	994	96.891759865964	148
4	994	96.891759865964	149
4	1018	100.767727185528	150
4	1018	100.767727185528	151
4	1018	100.767727185528	152
4	1041	104.120954447735	153
4	1041	104.120954447735	154
4	1041	104.120954447735	155
4	1061	107.614353819572	156
4	1061	107.614353819572	157
4	1061	107.614353819572	158
4	1079	108.909895689985	159
4	1079	108.909895689985	160
4	1079	108.909895689985	161
4	1097	110.394561972867	162
4	1097	110.394561972867	163
4	1097	110.394561972867	164
4	1111	111.588046277537	165
4	1111	111.588046277537	166
4	1111	111.588046277537	167
4	1136	115.081500101692	168
4	1136	115.081500101692	169
4	1136	115.081500101692	170
4	1167	117.17393397183	171
4	1167	117.17393397183	172
4	1167	117.17393397183	173
4	1192	120.205692195768	174
4	1192	120.205692195768	175
4	1192	120.205692195768	176
4	1213	121.803060616793	177
4	1213	121.803060616793	178
4	1213	121.803060616793	179
4	1227	123.595865952714	180
4	1227	123.595865952714	181
4	1227	123.595865952714	182
4	1255	129.318595624191	183
4	1255	129.318595624191	184
4	1255	129.318595624191	185
4	1269	130.387376102193	186
4	1269	130.387376102193	187
4	1269	130.387376102193	188
4	1289	132.543570077173	189
4	1289	132.543570077173	190
4	1289	132.543570077173	191
4	1311	133.767259939431	192
4	1311	133.767259939431	193
4	1311	133.767259939431	194
4	1329	135.484296549684	195
4	1329	135.484296549684	196
4	1329	135.484296549684	197
4	1344	137.136988280439	198
4	1344	137.136988280439	199
4	1344	137.136988280439	200
4	1365	139.138946364166	201
4	1365	139.138946364166	202
4	1365	139.138946364166	203
4	1383	140.918784630082	204
4	1383	140.918784630082	205
4	1383	140.918784630082	206
4	1403	144.065357246099	207
4	1403	144.065357246099	208
4	1403	144.065357246099	209
4	1423	147.058890635503	210
4	1423	147.058890635503	211
4	1423	147.058890635503	212
4	1441	148.18267682572	213
4	1441	148.18267682572	214
4	1441	148.18267682572	215
4	1456	149.459257968296	216
4	1456	149.459257968296	217
4	1456	149.459257968296	218
4	1475	152.819185349079	219
4	1475	152.819185349079	220
4	1475	152.819185349079	221
4	1495	155.331343123657	222
4	1495	155.331343123657	223
4	1495	155.331343123657	224
4	1521	160.297968828704	225
4	1521	160.297968828704	226
4	1521	160.297968828704	227
4	1539	162.118415438158	228
4	1539	162.118415438158	229
4	1539	162.118415438158	230
4	1554	164.106847575481	231
4	1554	164.106847575481	232
4	1554	164.106847575481	233
4	1573	166.39554448026	234
4	1573	166.39554448026	235
4	1573	166.39554448026	236
4	1595	167.621731839631	237
4	1595	167.621731839631	238
4	1595	167.621731839631	239
4	1613	168.715258877935	240
4	1613	168.715258877935	241
4	1613	168.715258877935	242
4	1631	170.552905591925	243
4	1631	170.552905591925	244
4	1631	170.552905591925	245
4	1649	172.382156893122	246
4	1649	172.382156893122	247
4	1649	172.382156893122	248
4	1667	173.578213702443	249
4	1667	173.578213702443	250
4	1667	173.578213702443	251
4	1685	175.213054066204	252
4	1685	175.213054066204	253
4	1685	175.213054066204	254
4	1703	176.92086114575	255
4	1703	176.92086114575	256
4	1703	176.92086114575	257
4	1721	178.341102355198	258
4	1721	178.341102355198	259
4	1721	178.341102355198	260
4	1739	180.234731355521	261
4	1739	180.234731355521	262
4	1739	180.234731355521	263
4	1759	183.079639162139	264
4	1759	183.079639162139	265
4	1759	183.079639162139	266
4	1777	184.561223558263	267
4	1777	184.561223558263	268
4	1777	184.561223558263	269
4	1792	185.844808313631	270
4	1792	185.844808313631	271
4	1792	185.844808313631	272
4	1813	187.099516427692	273
4	1813	187.099516427692	274
4	1813	187.099516427692	275
4	1831	188.630347327375	276
4	1831	188.630347327375	277
4	1831	188.630347327375	278
4	1849	189.699942116478	279
4	1849	189.699942116478	280
4	1849	189.699942116478	281
4	1869	193.148962544411	282
4	1869	193.148962544411	283
4	1869	193.148962544411	284
4	1887	194.572751780807	285
4	1887	194.572751780807	286
4	1887	194.572751780807	287
4	1907	197.229650521223	288
4	1907	197.229650521223	289
4	1907	197.229650521223	290
4	1925	198.910343438935	291
4	1925	198.910343438935	292
4	1925	198.910343438935	293
4	1942	201.748869484564	294
4	1942	201.748869484564	295
4	1942	201.748869484564	296
4	1962	205.299320510246	297
4	1962	205.299320510246	298
4	1962	205.299320510246	299
4	1989	207.988058807272	300
4	1989	207.988058807272	301
4	1989	207.988058807272	302
4	2004	209.326462409824	303
4	2004	209.326462409824	304
4	2004	209.326462409824	305
4	2021	210.473764444499	306
4	2021	210.473764444499	307
4	2021	210.473764444499	308
4	2045	213.474171589059	309
4	2045	213.474171589059	310
4	2045	213.474171589059	311
4	2059	214.630032611182	312
4	2059	214.630032611182	313
4	2059	214.630032611182	314
4	2077	215.985905955387	315
4	2077	215.985905955387	316
4	2077	215.985905955387	317
4	2099	217.663779212674	318
4	2099	217.663779212674	319
4	2099	217.663779212674	320
4	2113	219.268921597878	321
4	2113	219.268921597878	322
4	2113	219.268921597878	323
4	2132	220.499861774794	324
4	2132	220.499861774794	325
4	2132	220.499861774794	326
4	2153	221.529488871901	327
4	2153	221.529488871901	328
4	2153	221.529488871901	329
4	2171	223.272893212834	330
4	2171	223.272893212834	331
4	2171	223.272893212834	332
4	2189	225.137277341582	333
4	2189	225.137277341582	334
4	2189	225.137277341582	335
4	2203	227.133807973642	336
4	2203	227.133807973642	337
4	2203	227.133807973642	338
4	2222	229.08091222656	339
4	2222	229.08091222656	340
4	2222	229.08091222656	341
4	2243	230.512879385236	342
4	2243	230.512879385236	343
4	2243	230.512879385236	344
4	2261	232.45711648222	345
4	2261	232.45711648222	346
4	2261	232.45711648222	347
4	2275	233.524216395527	348
4	2275	233.524216395527	349
4	2275	233.524216395527	350
4	2293	234.743934805191	351
4	2293	234.743934805191	352
4	2293	234.743934805191	353
4	2315	236.054456051167	354
4	2315	236.054456051167	355
4	2315	236.054456051167	356
4	2329	238.051137670219	357
4	2329	238.051137670219	358
4	2329	238.051137670219	359
4	2351	239.486014178854	360
4	2351	239.486014178854	361
4	2351	239.486014178854	362
5	18	0.248240195904	0
5	83	6.456783679219	1
5	104	7.691383839634	2
5	121	11.074051987478	3
5	166	14.67249373555	4
5	184	16.622549969623	5
5	219	22.462865910598	6
5	240	23.541484186856	7
5	270	28.221485002041	8
5	328	35.990446656249	9
5	346	37.759413436252	10
5	378	41.590690396689	11
5	396	42.775449274974	12
5	420	45.568856163195	13
5	438	46.881492133082	14
5	452	47.908981335389	15
5	474	49.173858715903	16
5	540	56.469901698824	17
5	580	59.970628806597	18
5	612	62.101901877744	19
5	652	65.325548936486	20
5	670	66.695932048657	21
5	721	70.818693292841	22
5	742	72.738956866889	23
5	757	74.265428236396	24
5	775	75.771048732008	25
5	796	77.070532615317	26
5	814	78.381013987092	27
5	832	79.52147342223	28
5	850	81.126939645002	29
5	868	85.023957061466	30
5	910	89.975268666622	31
5	924	91.317209266155	32
5	946	92.891843333865	33
5	960	93.978733195968	34
5	1000	96.901759865964	35
5	1024	100.777727185528	36
5	1044	104.130954447735	37
5	1064	107.624353819572	38
5	1100	110.404561972867	39
5	1114	111.598046277537	40
5	1142	115.091500101692	41
5	1198	120.215692195768	42
5	1216	121.813060616793	43
5	1230	123.605865952714	44
5	1258	129.328595624191	45
5	1272	130.397376102193	46
5	1292	132.553570077173	47
5	1314	133.777259939431	48
5	1332	135.494296549684	49
5	1350	137.146988280439	50
5	1386	140.928784630082	51
5	1406	144.075357246099	52
5	1426	147.068890635503	53
5	1444	148.19267682572	54
5	1479	152.829185349079	55
5	1498	155.341343123657	56
5	1524	160.307968828704	57
5	1560	164.116847575481	58
5	1576	166.40554448026	59
5	1598	167.631731839631	60
5	1616	168.725258877935	61
5	1634	170.562905591925	62
5	1652	172.392156893122	63
5	1670	173.588213702443	64
5	1688	175.223054066204	65
5	1706	176.93086114575	66
5	1724	178.351102355198	67
5	1742	180.244731355521	68
5	1762	183.089639162139	69
5	1780	184.571223558263	70
5	1798	185.854808313631	71
5	1816	187.109516427692	72
5	1852	189.709942116478	73
5	1872	193.158962544411	74
5	1890	194.582751780807	75
5	1910	197.239650521223	76
5	1928	198.920343438935	77
5	1948	201.758869484564	78
5	1968	205.309320510246	79
5	1992	207.998058807272	80
5	2010	209.336462409824	81
5	2025	210.483764444499	82
5	2048	213.484171589059	83
5	2063	214.640032611182	84
5	2081	215.995905955387	85
5	2102	217.673779212674	86
5	2117	219.278921597878	87
5	2138	220.509861774794	88
5	2156	221.539488871901	89
5	2174	223.282893212834	90
5	2206	227.143807973642	91
5	2228	229.09091222656	92
5	2246	230.522879385236	93
5	2264	232.46711648222	94
5	2278	233.534216395527	95
5	2296	234.753934805191	96
5	2318	236.064456051167	97
5	2354	239.496014178854	98

