version 2
run General-2-20230921-21:32:46-5507
attr configname General
attr datetime 20230921-21:32:46
attr experiment General
attr inifile omnetpp.ini
attr iterationvars ""
attr iterationvarsf ""
attr measurement ""
attr network Network1
attr processid 5507
attr repetition 2
attr replication #2
attr resultdir results
attr runnumber 2
attr seedset 2
param Network1.node[*].transmissionTime "uniform(1s, 2s)"
param Network1.node[*].delayTime "uniform(0.01s, 0.2s)"
param Network1.node[*].processingTime exponential(0.01s)
param Network1.node[*].lossProbability 0.2

vector 0 Network1.node[0] txVector ETV
vector 1 Network1.node[1] txVector ETV
vector 2 Network1.node[3] txVector ETV
vector 3 Network1.node[2] txVector ETV
vector 4 Network1.node[4] txVector ETV
vector 5 Network1.node[5] rxVector ETV
0	1	0.092839031499	0
0	3	1.277921112972	1
0	21	3.20946197656	2
0	39	5.027688698629	3
0	49	6.997321106279	4
0	67	8.491610874207	5
0	85	10.284700617212	6
0	103	12.277966909128	7
0	121	14.226057332492	8
0	139	15.928099369415	9
0	157	17.445530130546	10
0	175	18.658463372634	11
0	193	20.289306028764	12
0	211	21.881802391977	13
0	229	23.250409933523	14
0	247	24.29042116857	15
0	249	25.754163776542	16
0	259	27.606452736788	17
0	261	29.121311903948	18
0	279	31.001302255102	19
0	297	32.336396919348	20
0	303	33.882269622543	21
0	321	35.817305350461	22
0	339	37.08765931988	23
0	357	38.831521349976	24
0	375	40.679983352794	25
0	377	42.155522323697	26
0	379	43.320389466145	27
0	397	45.14784281656	28
0	415	46.589231442444	29
0	433	48.371864460425	30
0	451	50.232892137736	31
0	469	52.099072379542	32
0	487	53.249558844154	33
0	505	54.994597104627	34
0	507	56.720227183325	35
0	525	58.111201445356	36
0	527	59.461924985534	37
0	529	60.825219631445	38
0	547	62.161512602371	39
0	565	63.996478456323	40
0	579	65.037724407407	41
0	597	66.469857508101	42
0	615	67.601136730768	43
0	633	68.745557194593	44
0	651	70.705263189989	45
0	669	72.450802004681	46
0	687	73.627099015069	47
0	705	75.455654178996	48
0	723	76.555619119916	49
0	733	78.034799446136	50
0	751	79.979674040357	51
0	753	81.177673931251	52
0	771	82.37957343391	53
0	789	84.241549892135	54
0	807	85.372414363798	55
0	825	86.926340602821	56
0	843	88.463647421932	57
0	861	89.665290464431	58
0	879	91.126898203062	59
0	897	93.063117430795	60
0	915	94.255319570906	61
0	933	96.195481878256	62
0	935	97.555508199164	63
0	937	98.592595996584	64
0	955	100.238576528399	65
0	973	102.167925704985	66
0	991	103.677460204127	67
0	993	105.140697585667	68
0	1011	106.644719532706	69
0	1029	108.430521182731	70
0	1047	109.975682595294	71
0	1065	111.10411137763	72
0	1079	112.174601743012	73
0	1097	114.082537074588	74
0	1115	115.401250119801	75
0	1133	116.681440898232	76
0	1151	118.480671911515	77
0	1169	120.029848044753	78
0	1187	121.239801173113	79
0	1205	122.950967838071	80
0	1223	124.916227342576	81
0	1241	126.745427757982	82
0	1255	128.633091538461	83
0	1273	129.786512327861	84
0	1291	131.270130864592	85
0	1293	132.975233816324	86
0	1311	134.235431483729	87
0	1313	135.857389826808	88
0	1319	136.905319516096	89
0	1337	138.024934857633	90
0	1355	139.411939661499	91
0	1373	140.896129759975	92
0	1391	142.643496428166	93
0	1393	143.856738234187	94
0	1411	145.225730276216	95
0	1429	146.653264812209	96
0	1447	147.830284033684	97
0	1465	149.382382923752	98
0	1483	150.955927286545	99
0	1501	152.585228617318	100
0	1519	153.909958508579	101
0	1521	155.295917033	102
0	1539	156.451678013677	103
0	1557	157.741683755784	104
0	1575	159.401431942374	105
0	1593	160.476064354895	106
0	1611	161.754517077018	107
0	1629	163.167903021226	108
0	1631	164.398539693576	109
0	1633	166.393307868407	110
0	1651	167.974075835912	111
0	1669	169.113264444765	112
0	1687	170.683152051425	113
0	1705	172.472826085534	114
0	1723	174.245575503228	115
0	1741	175.747732161559	116
0	1759	176.812314919444	117
0	1777	178.563967108043	118
0	1779	179.936311517159	119
0	1797	181.468487559367	120
0	1815	183.180241030656	121
0	1833	184.911727877349	122
0	1835	186.125481117998	123
0	1837	187.976758386955	124
0	1855	189.735738286531	125
0	1873	190.958445239362	126
0	1891	192.412375740955	127
0	1893	194.259549994968	128
0	1911	195.795713894317	129
0	1929	197.420214172933	130
0	1947	198.998686643099	131
0	1965	200.078631348457	132
0	1983	201.41513079709	133
0	2001	203.398402696025	134
0	2019	204.56940812945	135
0	2021	206.264581531068	136
0	2039	208.097938284525	137
0	2057	209.905323216706	138
0	2059	211.476727767629	139
0	2077	212.823372610393	140
0	2079	214.22589724652	141
0	2081	215.865221047089	142
0	2083	217.797279339996	143
0	2101	218.910594659871	144
0	2119	220.433109224322	145
0	2137	221.46326414241	146
0	2155	222.914681019974	147
0	2173	224.164369642516	148
0	2191	226.071804783787	149
0	2209	227.53121964146	150
0	2211	228.599402957145	151
0	2229	230.215722426321	152
0	2235	231.339429011816	153
0	2253	233.177264088547	154
0	2255	235.048218105702	155
0	2257	236.255310633933	156
0	2275	238.220582764843	157
0	2293	239.838335090331	158
1	5	1.317434556699	0
1	5	1.317434556699	1
1	5	1.317434556699	2
1	23	3.230951331677	3
1	23	3.230951331677	4
1	23	3.230951331677	5
1	41	5.041212943669	6
1	41	5.041212943669	7
1	41	5.041212943669	8
1	51	7.015662803448	9
1	51	7.015662803448	10
1	51	7.015662803448	11
1	69	8.512489431556	12
1	69	8.512489431556	13
1	69	8.512489431556	14
1	87	10.298488325353	15
1	87	10.298488325353	16
1	87	10.298488325353	17
1	105	12.305276448923	18
1	105	12.305276448923	19
1	105	12.305276448923	20
1	123	14.248317540066	21
1	123	14.248317540066	22
1	123	14.248317540066	23
1	141	15.959681758268	24
1	141	15.959681758268	25
1	141	15.959681758268	26
1	159	17.460024730084	27
1	159	17.460024730084	28
1	159	17.460024730084	29
1	177	18.672647532817	30
1	177	18.672647532817	31
1	177	18.672647532817	32
1	195	20.314731873517	33
1	195	20.314731873517	34
1	195	20.314731873517	35
1	213	21.894233385447	36
1	213	21.894233385447	37
1	213	21.894233385447	38
1	231	23.273608353533	39
1	231	23.273608353533	40
1	231	23.273608353533	41
1	251	25.766556091388	42
1	251	25.766556091388	43
1	251	25.766556091388	44
1	263	29.146673403132	45
1	263	29.146673403132	46
1	263	29.146673403132	47
1	281	31.013065993094	48
1	281	31.013065993094	49
1	281	31.013065993094	50
1	299	32.34658130929	51
1	299	32.34658130929	52
1	299	32.34658130929	53
1	305	33.897222191685	54
1	305	33.897222191685	55
1	305	33.897222191685	56
1	323	35.827331209612	57
1	323	35.827331209612	58
1	323	35.827331209612	59
1	341	37.111690915807	60
1	341	37.111690915807	61
1	341	37.111690915807	62
1	359	38.844307473763	63
1	359	38.844307473763	64
1	359	38.844307473763	65
1	381	43.338148186841	66
1	381	43.338148186841	67
1	381	43.338148186841	68
1	399	45.17739513504	69
1	399	45.17739513504	70
1	399	45.17739513504	71
1	417	46.610237399998	72
1	417	46.610237399998	73
1	417	46.610237399998	74
1	435	48.385161452546	75
1	435	48.385161452546	76
1	435	48.385161452546	77
1	453	50.279388481366	78
1	453	50.279388481366	79
1	453	50.279388481366	80
1	471	52.110989347094	81
1	471	52.110989347094	82
1	471	52.110989347094	83
1	489	53.263708897942	84
1	489	53.263708897942	85
1	489	53.263708897942	86
1	509	56.735114293969	87
1	509	56.735114293969	88
1	509	56.735114293969	89
1	531	60.840431395395	90
1	531	60.840431395395	91
1	531	60.840431395395	92
1	549	62.172573717651	93
1	549	62.172573717651	94
1	549	62.172573717651	95
1	567	64.009762207599	96
1	567	64.009762207599	97
1	567	64.009762207599	98
1	581	65.051113496997	99
1	581	65.051113496997	100
1	581	65.051113496997	101
1	599	66.508799898281	102
1	599	66.508799898281	103
1	599	66.508799898281	104
1	617	67.629261059524	105
1	617	67.629261059524	106
1	617	67.629261059524	107
1	635	68.775800553474	108
1	635	68.775800553474	109
1	635	68.775800553474	110
1	653	70.719808683178	111
1	653	70.719808683178	112
1	653	70.719808683178	113
1	671	72.470068972492	114
1	671	72.470068972492	115
1	671	72.470068972492	116
1	689	73.647665539461	117
1	689	73.647665539461	118
1	689	73.647665539461	119
1	707	75.465673023317	120
1	707	75.465673023317	121
1	707	75.465673023317	122
1	725	76.576846820699	123
1	725	76.576846820699	124
1	725	76.576846820699	125
1	735	78.059712565416	126
1	735	78.059712565416	127
1	735	78.059712565416	128
1	755	81.211431881741	129
1	755	81.211431881741	130
1	755	81.211431881741	131
1	773	82.392246494782	132
1	773	82.392246494782	133
1	773	82.392246494782	134
1	791	84.253957126958	135
1	791	84.253957126958	136
1	791	84.253957126958	137
1	809	85.396074386376	138
1	809	85.396074386376	139
1	809	85.396074386376	140
1	827	86.938334486469	141
1	827	86.938334486469	142
1	827	86.938334486469	143
1	845	88.512849773744	144
1	845	88.512849773744	145
1	845	88.512849773744	146
1	863	89.684740426576	147
1	863	89.684740426576	148
1	863	89.684740426576	149
1	881	91.138557183613	150
1	881	91.138557183613	151
1	881	91.138557183613	152
1	899	93.074418949537	153
1	899	93.074418949537	154
1	899	93.074418949537	155
1	917	94.272815868404	156
1	917	94.272815868404	157
1	917	94.272815868404	158
1	939	98.607290596906	159
1	939	98.607290596906	160
1	939	98.607290596906	161
1	957	100.248818888691	162
1	957	100.248818888691	163
1	957	100.248818888691	164
1	975	102.180812982595	165
1	975	102.180812982595	166
1	975	102.180812982595	167
1	995	105.167030724621	168
1	995	105.167030724621	169
1	995	105.167030724621	170
1	1013	106.659754425254	171
1	1013	106.659754425254	172
1	1013	106.659754425254	173
1	1031	108.453061754205	174
1	1031	108.453061754205	175
1	1031	108.453061754205	176
1	1049	109.994616270533	177
1	1049	109.994616270533	178
1	1049	109.994616270533	179
1	1067	111.117479453703	180
1	1067	111.117479453703	181
1	1067	111.117479453703	182
1	1081	112.191120755384	183
1	1081	112.191120755384	184
1	1081	112.191120755384	185
1	1099	114.096600183968	186
1	1099	114.096600183968	187
1	1099	114.096600183968	188
1	1117	115.414386441132	189
1	1117	115.414386441132	190
1	1117	115.414386441132	191
1	1135	116.693444412625	192
1	1135	116.693444412625	193
1	1135	116.693444412625	194
1	1153	118.496878021708	195
1	1153	118.496878021708	196
1	1153	118.496878021708	197
1	1171	120.049236241956	198
1	1171	120.049236241956	199
1	1171	120.049236241956	200
1	1189	121.283917284501	201
1	1189	121.283917284501	202
1	1189	121.283917284501	203
1	1207	122.969581209577	204
1	1207	122.969581209577	205
1	1207	122.969581209577	206
1	1225	124.935971675924	207
1	1225	124.935971675924	208
1	1225	124.935971675924	209
1	1243	126.76521051597	210
1	1243	126.76521051597	211
1	1243	126.76521051597	212
1	1257	128.643482619753	213
1	1257	128.643482619753	214
1	1257	128.643482619753	215
1	1275	129.798399283274	216
1	1275	129.798399283274	217
1	1275	129.798399283274	218
1	1295	133.001806627017	219
1	1295	133.001806627017	220
1	1295	133.001806627017	221
1	1315	135.867487496189	222
1	1315	135.867487496189	223
1	1315	135.867487496189	224
1	1321	136.949785391254	225
1	1321	136.949785391254	226
1	1321	136.949785391254	227
1	1339	138.052946321208	228
1	1339	138.052946321208	229
1	1339	138.052946321208	230
1	1357	139.432516643988	231
1	1357	139.432516643988	232
1	1357	139.432516643988	233
1	1375	140.913085608825	234
1	1375	140.913085608825	235
1	1375	140.913085608825	236
1	1395	143.885551126369	237
1	1395	143.885551126369	238
1	1395	143.885551126369	239
1	1413	145.243349210334	240
1	1413	145.243349210334	241
1	1413	145.243349210334	242
1	1431	146.664300395868	243
1	1431	146.664300395868	244
1	1431	146.664300395868	245
1	1449	147.840804939268	246
1	1449	147.840804939268	247
1	1449	147.840804939268	248
1	1467	149.406654650959	249
1	1467	149.406654650959	250
1	1467	149.406654650959	251
1	1485	150.978686365338	252
1	1485	150.978686365338	253
1	1485	150.978686365338	254
1	1503	152.607925800766	255
1	1503	152.607925800766	256
1	1503	152.607925800766	257
1	1523	155.307659948405	258
1	1523	155.307659948405	259
1	1523	155.307659948405	260
1	1541	156.467863734815	261
1	1541	156.467863734815	262
1	1541	156.467863734815	263
1	1559	157.754389548639	264
1	1559	157.754389548639	265
1	1559	157.754389548639	266
1	1577	159.415808165496	267
1	1577	159.415808165496	268
1	1577	159.415808165496	269
1	1595	160.4926658142	270
1	1595	160.4926658142	271
1	1595	160.4926658142	272
1	1613	161.782721506371	273
1	1613	161.782721506371	274
1	1613	161.782721506371	275
1	1635	166.411127918996	276
1	1635	166.411127918996	277
1	1635	166.411127918996	278
1	1653	168.009688161238	279
1	1653	168.009688161238	280
1	1653	168.009688161238	281
1	1671	169.128438218072	282
1	1671	169.128438218072	283
1	1671	169.128438218072	284
1	1689	170.693661876502	285
1	1689	170.693661876502	286
1	1689	170.693661876502	287
1	1707	172.484076433891	288
1	1707	172.484076433891	289
1	1707	172.484076433891	290
1	1725	174.259117969219	291
1	1725	174.259117969219	292
1	1725	174.259117969219	293
1	1743	175.770638428312	294
1	1743	175.770638428312	295
1	1743	175.770638428312	296
1	1761	176.840031224334	297
1	1761	176.840031224334	298
1	1761	176.840031224334	299
1	1781	179.949256483068	300
1	1781	179.949256483068	301
1	1781	179.949256483068	302
1	1799	181.501797599601	303
1	1799	181.501797599601	304
1	1799	181.501797599601	305
1	1817	183.200953716675	306
1	1817	183.200953716675	307
1	1817	183.200953716675	308
1	1839	187.991481764055	309
1	1839	187.991481764055	310
1	1839	187.991481764055	311
1	1857	189.75532336378	312
1	1857	189.75532336378	313
1	1857	189.75532336378	314
1	1875	190.987567366429	315
1	1875	190.987567366429	316
1	1875	190.987567366429	317
1	1895	194.278732486311	318
1	1895	194.278732486311	319
1	1895	194.278732486311	320
1	1913	195.873767967595	321
1	1913	195.873767967595	322
1	1913	195.873767967595	323
1	1931	197.457868983022	324
1	1931	197.457868983022	325
1	1931	197.457868983022	326
1	1949	199.0108866073	327
1	1949	199.0108866073	328
1	1949	199.0108866073	329
1	1967	200.09655996511	330
1	1967	200.09655996511	331
1	1967	200.09655996511	332
1	1985	201.427434338684	333
1	1985	201.427434338684	334
1	1985	201.427434338684	335
1	2003	203.417560336125	336
1	2003	203.417560336125	337
1	2003	203.417560336125	338
1	2023	206.275251503538	339
1	2023	206.275251503538	340
1	2023	206.275251503538	341
1	2041	208.11360345766	342
1	2041	208.11360345766	343
1	2041	208.11360345766	344
1	2061	211.492735722994	345
1	2061	211.492735722994	346
1	2061	211.492735722994	347
1	2085	217.808367999922	348
1	2085	217.808367999922	349
1	2085	217.808367999922	350
1	2103	218.933077489728	351
1	2103	218.933077489728	352
1	2103	218.933077489728	353
1	2121	220.445331225925	354
1	2121	220.445331225925	355
1	2121	220.445331225925	356
1	2139	221.48402892324	357
1	2139	221.48402892324	358
1	2139	221.48402892324	359
1	2157	222.945528172961	360
1	2157	222.945528172961	361
1	2157	222.945528172961	362
1	2175	224.187258803202	363
1	2175	224.187258803202	364
1	2175	224.187258803202	365
1	2193	226.094921586697	366
1	2193	226.094921586697	367
1	2193	226.094921586697	368
1	2213	228.650420471833	369
1	2213	228.650420471833	370
1	2213	228.650420471833	371
1	2231	230.252693808289	372
1	2231	230.252693808289	373
1	2231	230.252693808289	374
1	2237	231.356628035264	375
1	2237	231.356628035264	376
1	2237	231.356628035264	377
1	2259	236.270944227381	378
1	2259	236.270944227381	379
1	2259	236.270944227381	380
1	2277	238.232116638921	381
1	2277	238.232116638921	382
1	2277	238.232116638921	383
1	2295	239.861302912128	384
1	2295	239.861302912128	385
1	2295	239.861302912128	386
2	9	1.331444330932	0
2	9	1.331444330932	1
2	9	1.331444330932	2
2	27	3.242990132847	3
2	27	3.242990132847	4
2	27	3.242990132847	5
2	56	7.028151343533	6
2	56	7.028151343533	7
2	56	7.028151343533	8
2	73	8.531164536826	9
2	73	8.531164536826	10
2	73	8.531164536826	11
2	92	10.314228593744	12
2	92	10.314228593744	13
2	92	10.314228593744	14
2	109	12.315552240924	15
2	109	12.315552240924	16
2	109	12.315552240924	17
2	128	14.261785114807	18
2	128	14.261785114807	19
2	128	14.261785114807	20
2	146	15.974573865514	21
2	146	15.974573865514	22
2	146	15.974573865514	23
2	167	17.480877802689	24
2	167	17.480877802689	25
2	167	17.480877802689	26
2	181	18.683074496431	27
2	181	18.683074496431	28
2	181	18.683074496431	29
2	199	20.339783019966	30
2	199	20.339783019966	31
2	199	20.339783019966	32
2	217	21.908483503191	33
2	217	21.908483503191	34
2	217	21.908483503191	35
2	236	23.292555049063	36
2	236	23.292555049063	37
2	236	23.292555049063	38
2	255	25.777531076037	39
2	255	25.777531076037	40
2	255	25.777531076037	41
2	268	29.163048822403	42
2	268	29.163048822403	43
2	268	29.163048822403	44
2	285	31.025517359741	45
2	285	31.025517359741	46
2	285	31.025517359741	47
2	310	33.907901379779	48
2	310	33.907901379779	49
2	310	33.907901379779	50
2	328	35.846882943467	51
2	328	35.846882943467	52
2	328	35.846882943467	53
2	346	37.123487196777	54
2	346	37.123487196777	55
2	346	37.123487196777	56
2	364	38.868105587914	57
2	364	38.868105587914	58
2	364	38.868105587914	59
2	385	43.351478590622	60
2	385	43.351478590622	61
2	385	43.351478590622	62
2	403	45.189864641881	63
2	403	45.189864641881	64
2	403	45.189864641881	65
2	421	46.637166636265	66
2	421	46.637166636265	67
2	421	46.637166636265	68
2	439	48.39593307989	69
2	439	48.39593307989	70
2	439	48.39593307989	71
2	457	50.30210698518	72
2	457	50.30210698518	73
2	457	50.30210698518	74
2	475	52.121122601336	75
2	475	52.121122601336	76
2	475	52.121122601336	77
2	493	53.276535890897	78
2	493	53.276535890897	79
2	493	53.276535890897	80
2	513	56.745939832773	81
2	513	56.745939832773	82
2	513	56.745939832773	83
2	535	60.851810747677	84
2	535	60.851810747677	85
2	535	60.851810747677	86
2	561	62.227547729034	87
2	561	62.227547729034	88
2	561	62.227547729034	89
2	585	65.067339438412	90
2	585	65.067339438412	91
2	585	65.067339438412	92
2	603	66.519807756209	93
2	603	66.519807756209	94
2	603	66.519807756209	95
2	625	67.68365127641	96
2	625	67.68365127641	97
2	625	67.68365127641	98
2	639	68.786245190691	99
2	639	68.786245190691	100
2	639	68.786245190691	101
2	658	70.734039577712	102
2	658	70.734039577712	103
2	658	70.734039577712	104
2	675	72.485424737626	105
2	675	72.485424737626	106
2	675	72.485424737626	107
2	697	73.678893118563	108
2	697	73.678893118563	109
2	697	73.678893118563	110
2	711	75.486309569723	111
2	711	75.486309569723	112
2	711	75.486309569723	113
2	740	78.081937430903	114
2	740	78.081937430903	115
2	740	78.081937430903	116
2	759	81.225385865724	117
2	759	81.225385865724	118
2	759	81.225385865724	119
2	781	82.418500941652	120
2	781	82.418500941652	121
2	781	82.418500941652	122
2	796	84.264918232563	123
2	796	84.264918232563	124
2	796	84.264918232563	125
2	814	85.422814448503	126
2	814	85.422814448503	127
2	814	85.422814448503	128
2	831	86.951514604231	129
2	831	86.951514604231	130
2	831	86.951514604231	131
2	849	88.523131138176	132
2	849	88.523131138176	133
2	849	88.523131138176	134
2	867	89.705049826368	135
2	867	89.705049826368	136
2	867	89.705049826368	137
2	886	91.159930486666	138
2	886	91.159930486666	139
2	886	91.159930486666	140
2	904	93.09011249366	141
2	904	93.09011249366	142
2	904	93.09011249366	143
2	925	94.30213298182	144
2	925	94.30213298182	145
2	925	94.30213298182	146
2	943	98.620936348372	147
2	943	98.620936348372	148
2	943	98.620936348372	149
2	961	100.260154055826	150
2	961	100.260154055826	151
2	961	100.260154055826	152
2	980	102.205552353376	153
2	980	102.205552353376	154
2	980	102.205552353376	155
2	999	105.181076975422	156
2	999	105.181076975422	157
2	999	105.181076975422	158
2	1025	106.700179189739	159
2	1025	106.700179189739	160
2	1025	106.700179189739	161
2	1036	108.466713393608	162
2	1036	108.466713393608	163
2	1036	108.466713393608	164
2	1053	110.013202238042	165
2	1053	110.013202238042	166
2	1053	110.013202238042	167
2	1085	112.203472884052	168
2	1085	112.203472884052	169
2	1085	112.203472884052	170
2	1103	114.107670337856	171
2	1103	114.107670337856	172
2	1103	114.107670337856	173
2	1126	115.445214620638	174
2	1126	115.445214620638	175
2	1126	115.445214620638	176
2	1139	116.709344944457	177
2	1139	116.709344944457	178
2	1139	116.709344944457	179
2	1157	118.510499367019	180
2	1157	118.510499367019	181
2	1157	118.510499367019	182
2	1175	120.065328568572	183
2	1175	120.065328568572	184
2	1175	120.065328568572	185
2	1193	121.298756349201	186
2	1193	121.298756349201	187
2	1193	121.298756349201	188
2	1211	122.980123130123	189
2	1211	122.980123130123	190
2	1211	122.980123130123	191
2	1230	124.947268191026	192
2	1230	124.947268191026	193
2	1230	124.947268191026	194
2	1248	126.781055257237	195
2	1248	126.781055257237	196
2	1248	126.781055257237	197
2	1261	128.654023270758	198
2	1261	128.654023270758	199
2	1261	128.654023270758	200
2	1280	129.812195680124	201
2	1280	129.812195680124	202
2	1280	129.812195680124	203
2	1299	133.014411811451	204
2	1299	133.014411811451	205
2	1299	133.014411811451	206
2	1326	136.969272469591	207
2	1326	136.969272469591	208
2	1326	136.969272469591	209
2	1344	138.075030881212	210
2	1344	138.075030881212	211
2	1344	138.075030881212	212
2	1361	139.443783029619	213
2	1361	139.443783029619	214
2	1361	139.443783029619	215
2	1383	140.944058923055	216
2	1383	140.944058923055	217
2	1383	140.944058923055	218
2	1404	143.913075261491	219
2	1404	143.913075261491	220
2	1404	143.913075261491	221
2	1422	145.276507951102	222
2	1422	145.276507951102	223
2	1422	145.276507951102	224
2	1439	146.724581466949	225
2	1439	146.724581466949	226
2	1439	146.724581466949	227
2	1453	147.875146028833	228
2	1453	147.875146028833	229
2	1453	147.875146028833	230
2	1471	149.418643924667	231
2	1471	149.418643924667	232
2	1471	149.418643924667	233
2	1489	151.002405506553	234
2	1489	151.002405506553	235
2	1489	151.002405506553	236
2	1507	152.624795225524	237
2	1507	152.624795225524	238
2	1507	152.624795225524	239
2	1535	155.346177877016	240
2	1535	155.346177877016	241
2	1535	155.346177877016	242
2	1549	156.502001347543	243
2	1549	156.502001347543	244
2	1549	156.502001347543	245
2	1563	157.775924922845	246
2	1563	157.775924922845	247
2	1563	157.775924922845	248
2	1582	159.437914023048	249
2	1582	159.437914023048	250
2	1582	159.437914023048	251
2	1599	160.509086082769	252
2	1599	160.509086082769	253
2	1599	160.509086082769	254
2	1621	161.80927885478	255
2	1621	161.80927885478	256
2	1621	161.80927885478	257
2	1643	166.441890406703	258
2	1643	166.441890406703	259
2	1643	166.441890406703	260
2	1657	168.022098015223	261
2	1657	168.022098015223	262
2	1657	168.022098015223	263
2	1676	169.15119102018	264
2	1676	169.15119102018	265
2	1676	169.15119102018	266
2	1693	170.704044622925	267
2	1693	170.704044622925	268
2	1693	170.704044622925	269
2	1715	172.504421838756	270
2	1715	172.504421838756	271
2	1715	172.504421838756	272
2	1729	174.282251954615	273
2	1729	174.282251954615	274
2	1729	174.282251954615	275
2	1748	175.785754257484	276
2	1748	175.785754257484	277
2	1748	175.785754257484	278
2	1766	176.861065367441	279
2	1766	176.861065367441	280
2	1766	176.861065367441	281
2	1789	179.975723368045	282
2	1789	179.975723368045	283
2	1789	179.975723368045	284
2	1803	181.517608196275	285
2	1803	181.517608196275	286
2	1803	181.517608196275	287
2	1822	183.221278973962	288
2	1822	183.221278973962	289
2	1822	183.221278973962	290
2	1851	188.037249235023	291
2	1851	188.037249235023	292
2	1851	188.037249235023	293
2	1865	189.781557325508	294
2	1865	189.781557325508	295
2	1865	189.781557325508	296
2	1879	191.001422166923	297
2	1879	191.001422166923	298
2	1879	191.001422166923	299
2	1900	194.299784014584	300
2	1900	194.299784014584	301
2	1900	194.299784014584	302
2	1917	195.88946748904	303
2	1917	195.88946748904	304
2	1917	195.88946748904	305
2	1935	197.471420517245	306
2	1935	197.471420517245	307
2	1935	197.471420517245	308
2	1953	199.02552262821	309
2	1953	199.02552262821	310
2	1953	199.02552262821	311
2	1972	200.108718044847	312
2	1972	200.108718044847	313
2	1972	200.108718044847	314
2	1990	201.446559932575	315
2	1990	201.446559932575	316
2	1990	201.446559932575	317
2	2015	203.468581267082	318
2	2015	203.468581267082	319
2	2015	203.468581267082	320
2	2027	206.28681986202	321
2	2027	206.28681986202	322
2	2027	206.28681986202	323
2	2045	208.130995436344	324
2	2045	208.130995436344	325
2	2045	208.130995436344	326
2	2066	211.50622877961	327
2	2066	211.50622877961	328
2	2066	211.50622877961	329
2	2093	217.830682421106	330
2	2093	217.830682421106	331
2	2093	217.830682421106	332
2	2107	218.951291653487	333
2	2107	218.951291653487	334
2	2107	218.951291653487	335
2	2125	220.455518350834	336
2	2125	220.455518350834	337
2	2125	220.455518350834	338
2	2143	221.501112251453	339
2	2143	221.501112251453	340
2	2143	221.501112251453	341
2	2162	222.9645719385	342
2	2162	222.9645719385	343
2	2162	222.9645719385	344
2	2179	224.197738478019	345
2	2179	224.197738478019	346
2	2179	224.197738478019	347
2	2201	226.128694704578	348
2	2201	226.128694704578	349
2	2201	226.128694704578	350
2	2225	228.702917858282	351
2	2225	228.702917858282	352
2	2225	228.702917858282	353
2	2241	231.390916144505	354
2	2241	231.390916144505	355
2	2241	231.390916144505	356
2	2263	236.285147307688	357
2	2263	236.285147307688	358
2	2263	236.285147307688	359
2	2282	238.247611685158	360
2	2282	238.247611685158	361
2	2282	238.247611685158	362
2	2303	239.890686603298	363
2	2303	239.890686603298	364
2	2303	239.890686603298	365
3	10	1.332888171871	0
3	10	1.332888171871	1
3	10	1.332888171871	2
3	28	3.24815812129	3
3	28	3.24815812129	4
3	28	3.24815812129	5
3	45	5.05680124543	6
3	45	5.05680124543	7
3	45	5.05680124543	8
3	55	7.026793882213	9
3	55	7.026793882213	10
3	55	7.026793882213	11
3	74	8.538270638741	12
3	74	8.538270638741	13
3	74	8.538270638741	14
3	91	10.31406655369	15
3	91	10.31406655369	16
3	91	10.31406655369	17
3	110	12.320489840032	18
3	110	12.320489840032	19
3	110	12.320489840032	20
3	127	14.26017150822	21
3	127	14.26017150822	22
3	127	14.26017150822	23
3	145	15.972689360487	24
3	145	15.972689360487	25
3	145	15.972689360487	26
3	163	17.470283560481	27
3	163	17.470283560481	28
3	163	17.470283560481	29
3	182	18.686405506463	30
3	182	18.686405506463	31
3	182	18.686405506463	32
3	200	20.346073151289	33
3	200	20.346073151289	34
3	200	20.346073151289	35
3	218	21.913200339572	36
3	218	21.913200339572	37
3	218	21.913200339572	38
3	235	23.285552847485	39
3	235	23.285552847485	40
3	235	23.285552847485	41
3	267	29.160036577871	42
3	267	29.160036577871	43
3	267	29.160036577871	44
3	289	31.043479430234	45
3	289	31.043479430234	46
3	289	31.043479430234	47
3	309	33.907758549141	48
3	309	33.907758549141	49
3	309	33.907758549141	50
3	327	35.840762125012	51
3	327	35.840762125012	52
3	327	35.840762125012	53
3	345	37.122124471892	54
3	345	37.122124471892	55
3	345	37.122124471892	56
3	363	38.860874819323	57
3	363	38.860874819323	58
3	363	38.860874819323	59
3	386	43.3589943277	60
3	386	43.3589943277	61
3	386	43.3589943277	62
3	404	45.194449090468	63
3	404	45.194449090468	64
3	404	45.194449090468	65
3	425	46.648559238049	66
3	425	46.648559238049	67
3	425	46.648559238049	68
3	443	48.408237199889	69
3	443	48.408237199889	70
3	443	48.408237199889	71
3	458	50.310643090008	72
3	458	50.310643090008	73
3	458	50.310643090008	74
3	483	52.147089025858	75
3	483	52.147089025858	76
3	483	52.147089025858	77
3	501	53.313074656549	78
3	501	53.313074656549	79
3	501	53.313074656549	80
3	514	56.747046794805	81
3	514	56.747046794805	82
3	514	56.747046794805	83
3	540	60.868306575122	84
3	540	60.868306575122	85
3	540	60.868306575122	86
3	553	62.186485650781	87
3	553	62.186485650781	88
3	553	62.186485650781	89
3	571	64.030004827461	90
3	571	64.030004827461	91
3	571	64.030004827461	92
3	586	65.06859245452	93
3	586	65.06859245452	94
3	586	65.06859245452	95
3	604	66.523466277422	96
3	604	66.523466277422	97
3	604	66.523466277422	98
3	621	67.66262208086	99
3	621	67.66262208086	100
3	621	67.66262208086	101
3	640	68.793438432473	102
3	640	68.793438432473	103
3	640	68.793438432473	104
3	657	70.731680241756	105
3	657	70.731680241756	106
3	657	70.731680241756	107
3	676	72.48630914612	108
3	676	72.48630914612	109
3	676	72.48630914612	110
3	693	73.661398366159	111
3	693	73.661398366159	112
3	693	73.661398366159	113
3	715	75.503084652735	114
3	715	75.503084652735	115
3	715	75.503084652735	116
3	729	76.590504909932	117
3	729	76.590504909932	118
3	729	76.590504909932	119
3	739	78.079628352641	120
3	739	78.079628352641	121
3	739	78.079628352641	122
3	763	81.238208070434	123
3	763	81.238208070434	124
3	763	81.238208070434	125
3	777	82.405347488077	126
3	777	82.405347488077	127
3	777	82.405347488077	128
3	795	84.264146490077	129
3	795	84.264146490077	130
3	795	84.264146490077	131
3	813	85.421502863045	132
3	813	85.421502863045	133
3	813	85.421502863045	134
3	835	86.985541964105	135
3	835	86.985541964105	136
3	835	86.985541964105	137
3	850	88.531446743307	138
3	850	88.531446743307	139
3	850	88.531446743307	140
3	871	89.72307358471	141
3	871	89.72307358471	142
3	871	89.72307358471	143
3	885	91.153152224772	144
3	885	91.153152224772	145
3	885	91.153152224772	146
3	903	93.089083391994	147
3	903	93.089083391994	148
3	903	93.089083391994	149
3	921	94.288845599701	150
3	921	94.288845599701	151
3	921	94.288845599701	152
3	951	98.65531777989	153
3	951	98.65531777989	154
3	951	98.65531777989	155
3	966	100.280275560319	156
3	966	100.280275560319	157
3	966	100.280275560319	158
3	979	102.203156999471	159
3	979	102.203156999471	160
3	979	102.203156999471	161
3	1003	105.193356979743	162
3	1003	105.193356979743	163
3	1003	105.193356979743	164
3	1017	106.671594292139	165
3	1017	106.671594292139	166
3	1017	106.671594292139	167
3	1035	108.464578607176	168
3	1035	108.464578607176	169
3	1035	108.464578607176	170
3	1058	110.025954033539	171
3	1058	110.025954033539	172
3	1058	110.025954033539	173
3	1071	111.133909796815	174
3	1071	111.133909796815	175
3	1071	111.133909796815	176
3	1090	112.230361500919	177
3	1090	112.230361500919	178
3	1090	112.230361500919	179
3	1104	114.112175469278	180
3	1104	114.112175469278	181
3	1104	114.112175469278	182
3	1121	115.426384636078	183
3	1121	115.426384636078	184
3	1121	115.426384636078	185
3	1140	116.713249707441	186
3	1140	116.713249707441	187
3	1140	116.713249707441	188
3	1161	118.520555245995	189
3	1161	118.520555245995	190
3	1161	118.520555245995	191
3	1176	120.067989277067	192
3	1176	120.067989277067	193
3	1176	120.067989277067	194
3	1194	121.305376457658	195
3	1194	121.305376457658	196
3	1194	121.305376457658	197
3	1212	122.984370705261	198
3	1212	122.984370705261	199
3	1212	122.984370705261	200
3	1229	124.947132609159	201
3	1229	124.947132609159	202
3	1229	124.947132609159	203
3	1247	126.776410197866	204
3	1247	126.776410197866	205
3	1247	126.776410197866	206
3	1265	128.668700295378	207
3	1265	128.668700295378	208
3	1265	128.668700295378	209
3	1279	129.811895153034	210
3	1279	129.811895153034	211
3	1279	129.811895153034	212
3	1307	133.062621469675	213
3	1307	133.062621469675	214
3	1307	133.062621469675	215
3	1325	136.966120368089	216
3	1325	136.966120368089	217
3	1325	136.966120368089	218
3	1343	138.070069215534	219
3	1343	138.070069215534	220
3	1343	138.070069215534	221
3	1362	139.446751135578	222
3	1362	139.446751135578	223
3	1362	139.446751135578	224
3	1379	140.930687115175	225
3	1379	140.930687115175	226
3	1379	140.930687115175	227
3	1399	143.896555050756	228
3	1399	143.896555050756	229
3	1399	143.896555050756	230
3	1417	145.255937930517	231
3	1417	145.255937930517	232
3	1417	145.255937930517	233
3	1435	146.705800781016	234
3	1435	146.705800781016	235
3	1435	146.705800781016	236
3	1457	147.909652702892	237
3	1457	147.909652702892	238
3	1457	147.909652702892	239
3	1475	149.436690164627	240
3	1475	149.436690164627	241
3	1475	149.436690164627	242
3	1493	151.02858029693	243
3	1493	151.02858029693	244
3	1493	151.02858029693	245
3	1511	152.648533483362	246
3	1511	152.648533483362	247
3	1511	152.648533483362	248
3	1527	155.318444967551	249
3	1527	155.318444967551	250
3	1527	155.318444967551	251
3	1545	156.486381313749	252
3	1545	156.486381313749	253
3	1545	156.486381313749	254
3	1564	157.784907727055	255
3	1564	157.784907727055	256
3	1564	157.784907727055	257
3	1581	159.430032711636	258
3	1581	159.430032711636	259
3	1581	159.430032711636	260
3	1604	160.524443126324	261
3	1604	160.524443126324	262
3	1604	160.524443126324	263
3	1617	161.798164795486	264
3	1617	161.798164795486	265
3	1617	161.798164795486	266
3	1639	166.426207219008	267
3	1639	166.426207219008	268
3	1639	166.426207219008	269
3	1662	168.036881673878	270
3	1662	168.036881673878	271
3	1662	168.036881673878	272
3	1675	169.141674691113	273
3	1675	169.141674691113	274
3	1675	169.141674691113	275
3	1694	170.708866163477	276
3	1694	170.708866163477	277
3	1694	170.708866163477	278
3	1711	172.494098548716	279
3	1711	172.494098548716	280
3	1711	172.494098548716	281
3	1730	174.287305606101	282
3	1730	174.287305606101	283
3	1730	174.287305606101	284
3	1747	175.783939780368	285
3	1747	175.783939780368	286
3	1747	175.783939780368	287
3	1765	176.851150183106	288
3	1765	176.851150183106	289
3	1765	176.851150183106	290
3	1785	179.963190881821	291
3	1785	179.963190881821	292
3	1785	179.963190881821	293
3	1807	181.537691749629	294
3	1807	181.537691749629	295
3	1807	181.537691749629	296
3	1821	183.212708619787	297
3	1821	183.212708619787	298
3	1821	183.212708619787	299
3	1843	188.002583918987	300
3	1843	188.002583918987	301
3	1843	188.002583918987	302
3	1861	189.768527034873	303
3	1861	189.768527034873	304
3	1861	189.768527034873	305
3	1884	191.021954944263	306
3	1884	191.021954944263	307
3	1884	191.021954944263	308
3	1899	194.293850128349	309
3	1899	194.293850128349	310
3	1899	194.293850128349	311
3	1921	195.900873701666	312
3	1921	195.900873701666	313
3	1921	195.900873701666	314
3	1943	197.512586186818	315
3	1943	197.512586186818	316
3	1943	197.512586186818	317
3	1957	199.042965988431	318
3	1957	199.042965988431	319
3	1957	199.042965988431	320
3	1971	200.10847200998	321
3	1971	200.10847200998	322
3	1971	200.10847200998	323
3	1989	201.441494067601	324
3	1989	201.441494067601	325
3	1989	201.441494067601	326
3	2007	203.444350191037	327
3	2007	203.444350191037	328
3	2007	203.444350191037	329
3	2028	206.289904854906	330
3	2028	206.289904854906	331
3	2028	206.289904854906	332
3	2046	208.135106984935	333
3	2046	208.135106984935	334
3	2046	208.135106984935	335
3	2065	211.503533577899	336
3	2065	211.503533577899	337
3	2065	211.503533577899	338
3	2089	217.819773707725	339
3	2089	217.819773707725	340
3	2089	217.819773707725	341
3	2111	218.964440461907	342
3	2111	218.964440461907	343
3	2111	218.964440461907	344
3	2129	220.470475685104	345
3	2129	220.470475685104	346
3	2129	220.470475685104	347
3	2147	221.513043979207	348
3	2147	221.513043979207	349
3	2147	221.513043979207	350
3	2161	222.963919819068	351
3	2161	222.963919819068	352
3	2161	222.963919819068	353
3	2183	224.21136852206	354
3	2183	224.21136852206	355
3	2183	224.21136852206	356
3	2197	226.106214536911	357
3	2197	226.106214536911	358
3	2197	226.106214536911	359
3	2217	228.667158200504	360
3	2217	228.667158200504	361
3	2217	228.667158200504	362
3	2245	231.402671145095	363
3	2245	231.402671145095	364
3	2245	231.402671145095	365
3	2264	236.286728265119	366
3	2264	236.286728265119	367
3	2264	236.286728265119	368
3	2281	238.243696414746	369
3	2281	238.243696414746	370
3	2281	238.243696414746	371
3	2299	239.874233968943	372
3	2299	239.874233968943	373
3	2299	239.874233968943	374
4	17	1.351101004583	0
4	17	1.351101004583	1
4	17	1.351101004583	2
4	35	3.272229927159	3
4	35	3.272229927159	4
4	35	3.272229927159	5
4	63	7.038630987195	6
4	63	7.038630987195	7
4	63	7.038630987195	8
4	81	8.581667264322	9
4	81	8.581667264322	10
4	81	8.581667264322	11
4	99	10.33037471134	12
4	99	10.33037471134	13
4	99	10.33037471134	14
4	114	12.326247289181	15
4	114	12.326247289181	16
4	114	12.326247289181	17
4	135	14.274070490507	18
4	135	14.274070490507	19
4	135	14.274070490507	20
4	153	16.008800421578	21
4	153	16.008800421578	22
4	153	16.008800421578	23
4	171	17.494871706029	24
4	171	17.494871706029	25
4	171	17.494871706029	26
4	189	18.70378969422	27
4	189	18.70378969422	28
4	189	18.70378969422	29
4	207	20.370102237429	30
4	207	20.370102237429	31
4	207	20.370102237429	32
4	225	21.943007759561	33
4	225	21.943007759561	34
4	225	21.943007759561	35
4	240	23.299428882053	36
4	240	23.299428882053	37
4	240	23.299428882053	38
4	275	29.190416397482	39
4	275	29.190416397482	40
4	275	29.190416397482	41
4	293	31.069518239757	42
4	293	31.069518239757	43
4	293	31.069518239757	44
4	317	33.923880235656	45
4	317	33.923880235656	46
4	317	33.923880235656	47
4	332	35.856480642916	48
4	332	35.856480642916	49
4	332	35.856480642916	50
4	353	37.133541164712	51
4	353	37.133541164712	52
4	353	37.133541164712	53
4	368	38.872542045966	54
4	368	38.872542045966	55
4	368	38.872542045966	56
4	393	43.395017940707	57
4	393	43.395017940707	58
4	393	43.395017940707	59
4	411	45.205274676952	60
4	411	45.205274676952	61
4	411	45.205274676952	62
4	426	46.651422753528	63
4	426	46.651422753528	64
4	426	46.651422753528	65
4	447	48.419051637462	66
4	447	48.419051637462	67
4	447	48.419051637462	68
4	465	50.326797644869	69
4	465	50.326797644869	70
4	465	50.326797644869	71
4	479	52.131544049996	72
4	479	52.131544049996	73
4	479	52.131544049996	74
4	497	53.300904832923	75
4	497	53.300904832923	76
4	497	53.300904832923	77
4	521	56.761553807293	78
4	521	56.761553807293	79
4	521	56.761553807293	80
4	539	60.862729571423	81
4	539	60.862729571423	82
4	539	60.862729571423	83
4	557	62.20104092501	84
4	557	62.20104092501	85
4	557	62.20104092501	86
4	575	64.049770138261	87
4	575	64.049770138261	88
4	575	64.049770138261	89
4	593	65.08374477311	90
4	593	65.08374477311	91
4	593	65.08374477311	92
4	611	66.558353662571	93
4	611	66.558353662571	94
4	611	66.558353662571	95
4	629	67.706768899325	96
4	629	67.706768899325	97
4	629	67.706768899325	98
4	647	68.811577131624	99
4	647	68.811577131624	100
4	647	68.811577131624	101
4	665	70.74460044761	102
4	665	70.74460044761	103
4	665	70.74460044761	104
4	683	72.499333387466	105
4	683	72.499333387466	106
4	683	72.499333387466	107
4	701	73.708924892326	108
4	701	73.708924892326	109
4	701	73.708924892326	110
4	719	75.52410177471	111
4	719	75.52410177471	112
4	719	75.52410177471	113
4	747	78.094733844483	114
4	747	78.094733844483	115
4	747	78.094733844483	116
4	767	81.281552855323	117
4	767	81.281552855323	118
4	767	81.281552855323	119
4	782	82.425550037999	120
4	782	82.425550037999	121
4	782	82.425550037999	122
4	803	84.280853627736	123
4	803	84.280853627736	124
4	803	84.280853627736	125
4	821	85.435144119888	126
4	821	85.435144119888	127
4	821	85.435144119888	128
4	839	87.013636059262	129
4	839	87.013636059262	130
4	839	87.013636059262	131
4	857	88.552892827436	132
4	857	88.552892827436	133
4	857	88.552892827436	134
4	875	89.741214733964	135
4	875	89.741214733964	136
4	875	89.741214733964	137
4	893	91.182679773529	138
4	893	91.182679773529	139
4	893	91.182679773529	140
4	911	93.106522449836	141
4	911	93.106522449836	142
4	911	93.106522449836	143
4	926	94.310574453071	144
4	926	94.310574453071	145
4	926	94.310574453071	146
4	947	98.639375506211	147
4	947	98.639375506211	148
4	947	98.639375506211	149
4	965	100.27220272152	150
4	965	100.27220272152	151
4	965	100.27220272152	152
4	987	102.225517580712	153
4	987	102.225517580712	154
4	987	102.225517580712	155
4	1004	105.194589656355	156
4	1004	105.194589656355	157
4	1004	105.194589656355	158
4	1021	106.687114350851	159
4	1021	106.687114350851	160
4	1021	106.687114350851	161
4	1040	108.47500649218	162
4	1040	108.47500649218	163
4	1040	108.47500649218	164
4	1057	110.023342251907	165
4	1057	110.023342251907	166
4	1057	110.023342251907	167
4	1075	111.147611702433	168
4	1075	111.147611702433	169
4	1075	111.147611702433	170
4	1089	112.227472226715	171
4	1089	112.227472226715	172
4	1089	112.227472226715	173
4	1111	114.13576055769	174
4	1111	114.13576055769	175
4	1111	114.13576055769	176
4	1125	115.43665779497	177
4	1125	115.43665779497	178
4	1125	115.43665779497	179
4	1144	116.7229239424	180
4	1144	116.7229239424	181
4	1144	116.7229239424	182
4	1165	118.534186004306	183
4	1165	118.534186004306	184
4	1165	118.534186004306	185
4	1183	120.079479771444	186
4	1183	120.079479771444	187
4	1183	120.079479771444	188
4	1198	121.310944344404	189
4	1198	121.310944344404	190
4	1198	121.310944344404	191
4	1219	123.003123367245	192
4	1219	123.003123367245	193
4	1219	123.003123367245	194
4	1237	124.958463925416	195
4	1237	124.958463925416	196
4	1237	124.958463925416	197
4	1266	128.670367764141	198
4	1266	128.670367764141	199
4	1266	128.670367764141	200
4	1287	129.832268414367	201
4	1287	129.832268414367	202
4	1287	129.832268414367	203
4	1303	133.038623352754	204
4	1303	133.038623352754	205
4	1303	133.038623352754	206
4	1333	136.989306501881	207
4	1333	136.989306501881	208
4	1333	136.989306501881	209
4	1348	138.085023899712	210
4	1348	138.085023899712	211
4	1348	138.085023899712	212
4	1369	139.46375292528	213
4	1369	139.46375292528	214
4	1369	139.46375292528	215
4	1387	140.958512154271	216
4	1387	140.958512154271	217
4	1387	140.958512154271	218
4	1403	143.908875464075	219
4	1403	143.908875464075	220
4	1403	143.908875464075	221
4	1421	145.272935056303	222
4	1421	145.272935056303	223
4	1421	145.272935056303	224
4	1443	146.744242935494	225
4	1443	146.744242935494	226
4	1443	146.744242935494	227
4	1461	147.93547439769	228
4	1461	147.93547439769	229
4	1461	147.93547439769	230
4	1479	149.452031705139	231
4	1479	149.452031705139	232
4	1479	149.452031705139	233
4	1497	151.057813558993	234
4	1497	151.057813558993	235
4	1497	151.057813558993	236
4	1515	152.663175074929	237
4	1515	152.663175074929	238
4	1515	152.663175074929	239
4	1531	155.329142236757	240
4	1531	155.329142236757	241
4	1531	155.329142236757	242
4	1550	156.510233997764	243
4	1550	156.510233997764	244
4	1550	156.510233997764	245
4	1568	157.790716854833	246
4	1568	157.790716854833	247
4	1568	157.790716854833	248
4	1586	159.442150303131	249
4	1586	159.442150303131	250
4	1586	159.442150303131	251
4	1603	160.522358632351	252
4	1603	160.522358632351	253
4	1603	160.522358632351	254
4	1622	161.810677158798	255
4	1622	161.810677158798	256
4	1622	161.810677158798	257
4	1644	166.442067606628	258
4	1644	166.442067606628	259
4	1644	166.442067606628	260
4	1661	168.036698957631	261
4	1661	168.036698957631	262
4	1661	168.036698957631	263
4	1683	169.189942220393	264
4	1683	169.189942220393	265
4	1683	169.189942220393	266
4	1698	170.714946785476	267
4	1698	170.714946785476	268
4	1698	170.714946785476	269
4	1716	172.510475516023	270
4	1716	172.510475516023	271
4	1716	172.510475516023	272
4	1737	174.316513965508	273
4	1737	174.316513965508	274
4	1737	174.316513965508	275
4	1755	175.802037124635	276
4	1755	175.802037124635	277
4	1755	175.802037124635	278
4	1773	176.872407079239	279
4	1773	176.872407079239	280
4	1773	176.872407079239	281
4	1793	180.00412237825	282
4	1793	180.00412237825	283
4	1793	180.00412237825	284
4	1811	181.582000181825	285
4	1811	181.582000181825	286
4	1811	181.582000181825	287
4	1829	183.236693321129	288
4	1829	183.236693321129	289
4	1829	183.236693321129	290
4	1847	188.017981818618	291
4	1847	188.017981818618	292
4	1847	188.017981818618	293
4	1866	189.782213115234	294
4	1866	189.782213115234	295
4	1866	189.782213115234	296
4	1883	191.018790347872	297
4	1883	191.018790347872	298
4	1883	191.018790347872	299
4	1904	194.303993564467	300
4	1904	194.303993564467	301
4	1904	194.303993564467	302
4	1922	195.909281662527	303
4	1922	195.909281662527	304
4	1922	195.909281662527	305
4	1939	197.494159390625	306
4	1939	197.494159390625	307
4	1939	197.494159390625	308
4	1961	199.054966797939	309
4	1961	199.054966797939	310
4	1961	199.054966797939	311
4	1979	200.134402818598	312
4	1979	200.134402818598	313
4	1979	200.134402818598	314
4	1997	201.472070102915	315
4	1997	201.472070102915	316
4	1997	201.472070102915	317
4	2011	203.456592618831	318
4	2011	203.456592618831	319
4	2011	203.456592618831	320
4	2032	206.298614771286	321
4	2032	206.298614771286	322
4	2032	206.298614771286	323
4	2050	208.144829916795	324
4	2050	208.144829916795	325
4	2050	208.144829916795	326
4	2073	211.557947656638	327
4	2073	211.557947656638	328
4	2073	211.557947656638	329
4	2097	217.841623947307	330
4	2097	217.841623947307	331
4	2097	217.841623947307	332
4	2112	218.967329410477	333
4	2112	218.967329410477	334
4	2112	218.967329410477	335
4	2133	220.486949367584	336
4	2133	220.486949367584	337
4	2133	220.486949367584	338
4	2148	221.522004438579	339
4	2148	221.522004438579	340
4	2148	221.522004438579	341
4	2169	222.976524318961	342
4	2169	222.976524318961	343
4	2169	222.976524318961	344
4	2187	224.222121297031	345
4	2187	224.222121297031	346
4	2187	224.222121297031	347
4	2202	226.132702588732	348
4	2202	226.132702588732	349
4	2202	226.132702588732	350
4	2221	228.689643131417	351
4	2221	228.689643131417	352
4	2221	228.689643131417	353
4	2249	231.435752714966	354
4	2249	231.435752714966	355
4	2249	231.435752714966	356
4	2271	236.299642281037	357
4	2271	236.299642281037	358
4	2271	236.299642281037	359
4	2289	238.259648039898	360
4	2289	238.259648039898	361
4	2289	238.259648039898	362
4	2307	239.906802082117	363
4	2307	239.906802082117	364
4	2307	239.906802082117	365
5	20	1.361101004583	0
5	66	7.048630987195	1
5	84	8.591667264322	2
5	120	12.336247289181	3
5	138	14.284070490507	4
5	156	16.018800421578	5
5	174	17.504871706029	6
5	192	18.71378969422	7
5	210	20.380102237429	8
5	228	21.953007759561	9
5	278	29.200416397482	10
5	296	31.079518239757	11
5	320	33.933880235656	12
5	338	35.866480642916	13
5	356	37.143541164712	14
5	374	38.882542045966	15
5	396	43.405017940707	16
5	414	45.215274676952	17
5	432	46.661422753528	18
5	468	50.336797644869	19
5	482	52.141544049996	20
5	524	56.771553807293	21
5	543	60.872729571423	22
5	560	62.21104092501	23
5	632	67.716768899325	24
5	704	73.718924892326	25
5	722	75.53410177471	26
5	788	82.435550037999	27
5	806	84.290853627736	28
5	824	85.445144119888	29
5	842	87.023636059262	30
5	860	88.562892827436	31
5	896	91.192679773529	32
5	914	93.116522449836	33
5	932	94.320574453071	34
5	990	102.235517580712	35
5	1010	105.204589656355	36
5	1024	106.697114350851	37
5	1046	108.48500649218	38
5	1061	110.033342251907	39
5	1078	111.157611702433	40
5	1114	114.14576055769	41
5	1150	116.7329239424	42
5	1168	118.544186004306	43
5	1186	120.089479771444	44
5	1204	121.320944344404	45
5	1222	123.013123367245	46
5	1240	124.968463925416	47
5	1272	128.680367764141	48
5	1290	129.842268414367	49
5	1306	133.048623352754	50
5	1336	136.999306501881	51
5	1354	138.095023899712	52
5	1372	139.47375292528	53
5	1390	140.968512154271	54
5	1407	143.918875464075	55
5	1425	145.282935056303	56
5	1446	146.754242935494	57
5	1464	147.94547439769	58
5	1482	149.462031705139	59
5	1500	151.067813558993	60
5	1518	152.673175074929	61
5	1534	155.339142236757	62
5	1556	156.520233997764	63
5	1592	159.452150303131	64
5	1607	160.532358632351	65
5	1628	161.820677158798	66
5	1650	166.452067606628	67
5	1665	168.046698957631	68
5	1686	169.199942220393	69
5	1704	170.724946785476	70
5	1722	172.520475516023	71
5	1758	175.812037124635	72
5	1776	176.882407079239	73
5	1814	181.592000181825	74
5	1832	183.246693321129	75
5	1850	188.027981818618	76
5	1887	191.028790347872	77
5	1928	195.919281662527	78
5	1982	200.144402818598	79
5	2000	201.482070102915	80
5	2014	203.466592618831	81
5	2056	208.154829916795	82
5	2076	211.567947656638	83
5	2136	220.496949367584	84
5	2154	221.532004438579	85
5	2208	226.142702588732	86
5	2224	228.699643131417	87
5	2252	231.445752714966	88
5	2274	236.309642281037	89
5	2292	238.269648039898	90
5	2310	239.916802082117	91

