version 2
run General-0-20230921-21:32:46-5507
attr configname General
attr datetime 20230921-21:32:46
attr experiment General
attr inifile omnetpp.ini
attr iterationvars ""
attr iterationvarsf ""
attr measurement ""
attr network Network1
attr processid 5507
attr repetition 0
attr replication #0
attr resultdir results
attr runnumber 0
attr seedset 0
param Network1.node[*].transmissionTime "uniform(1s, 2s)"
param Network1.node[*].delayTime "uniform(0.01s, 0.2s)"
param Network1.node[*].processingTime exponential(0.01s)
param Network1.node[*].lossProbability 0.2

vector 0 Network1.node[0] txVector ETV
vector 1 Network1.node[1] txVector ETV
vector 2 Network1.node[3] txVector ETV
vector 3 Network1.node[2] txVector ETV
vector 4 Network1.node[4] txVector ETV
vector 5 Network1.node[5] rxVector ETV
0	1	0.114274565438	0
0	19	1.707119181827	1
0	33	3.184784293482	2
0	51	4.553025830844	3
0	53	6.135045622084	4
0	71	7.672418850315	5
0	89	8.822093714102	6
0	107	10.4752337463	7
0	125	12.128024065242	8
0	127	13.445225810007	9
0	129	15.223571291732	10
0	135	17.173142343134	11
0	153	18.795988436396	12
0	155	20.775575166874	13
0	173	22.135019635855	14
0	175	24.051742592434	15
0	193	25.972900204434	16
0	195	27.525721688596	17
0	213	28.690662149181	18
0	231	30.58670053848	19
0	249	32.262139615677	20
0	267	33.880948176682	21
0	285	34.973322063293	22
0	303	36.95736429871	23
0	305	37.99492368319	24
0	319	39.503239133469	25
0	337	41.485814090193	26
0	339	43.235813337917	27
0	357	44.57521715395	28
0	359	46.17187256676	29
0	361	47.955516814793	30
0	379	49.45554310859	31
0	397	51.009785544666	32
0	415	52.066203879266	33
0	433	53.743285455582	34
0	451	55.647710432838	35
0	469	57.103840205194	36
0	487	58.257534508667	37
0	501	59.432443380895	38
0	519	61.154524041646	39
0	525	62.44143908711	40
0	543	63.997088324352	41
0	561	65.603563786558	42
0	579	67.448113864361	43
0	597	68.717593300695	44
0	615	70.061198800177	45
0	633	72.014069471349	46
0	651	73.766203989348	47
0	665	75.290796605245	48
0	679	76.950836466932	49
0	697	78.84288612877	50
0	715	80.257453606771	51
0	721	81.583138373289	52
0	739	82.712550710961	53
0	757	84.18577138016	54
0	775	85.689198806724	55
0	793	86.783656722475	56
0	811	88.227535402244	57
0	829	89.283501232583	58
0	847	90.86365295209	59
0	865	92.695172353024	60
0	883	94.329103305545	61
0	901	95.692264557658	62
0	919	96.813324434757	63
0	937	98.444449980119	64
0	955	99.796320543932	65
0	969	100.928172579343	66
0	987	102.306498722481	67
0	1005	103.88641112282	68
0	1023	104.912933674018	69
0	1041	106.423562576837	70
0	1059	107.571831217111	71
0	1061	108.725458758726	72
0	1079	110.150966394768	73
0	1081	111.539833827951	74
0	1099	112.766917798976	75
0	1117	113.796017807285	76
0	1135	115.683282642933	77
0	1145	117.363979879143	78
0	1163	118.680467798682	79
0	1181	120.016098777605	80
0	1199	121.450859415652	81
0	1201	123.421081219408	82
0	1219	125.084947285782	83
0	1237	127.013165993923	84
0	1255	128.050731042241	85
0	1273	129.322960406616	86
0	1275	130.648078318061	87
0	1293	132.23148250401	88
0	1299	133.420545160146	89
0	1317	134.510778142213	90
0	1335	136.019168528569	91
0	1353	137.875923776141	92
0	1371	139.200006470856	93
0	1389	140.285239531732	94
0	1407	142.081558944964	95
0	1425	143.356133994953	96
0	1443	145.241085890987	97
0	1445	146.401479433597	98
0	1463	147.751686692777	99
0	1481	149.005711921331	100
0	1499	150.591143993268	101
0	1517	152.393836130927	102
0	1535	154.372383678405	103
0	1553	156.267728792344	104
0	1571	157.46175160569	105
0	1589	159.243840981348	106
0	1607	160.854827489311	107
0	1625	162.559975027412	108
0	1643	163.645041830212	109
0	1661	164.813084348876	110
0	1663	166.540334261095	111
0	1681	168.203652179872	112
0	1683	169.660339773937	113
0	1685	171.485137482478	114
0	1703	173.153743325338	115
0	1705	175.026045836114	116
0	1723	176.182699323703	117
0	1741	177.813570388897	118
0	1743	179.172681046023	119
0	1761	180.881578600339	120
0	1779	182.071332219129	121
0	1797	183.434220216542	122
0	1815	184.745706286354	123
0	1817	186.404974154968	124
0	1819	188.129968249079	125
0	1837	189.294456659191	126
0	1855	190.868488502995	127
0	1873	192.832464223103	128
0	1875	194.764759535975	129
0	1893	196.757760849157	130
0	1911	198.150191416107	131
0	1929	199.357487393152	132
0	1947	200.492306037648	133
0	1965	201.859352279529	134
0	1983	203.571342855999	135
0	2001	204.632337862467	136
0	2003	206.552609623484	137
0	2021	207.918853946104	138
0	2023	209.458667326792	139
0	2029	211.326922315479	140
0	2047	213.025479725635	141
0	2065	214.159428616593	142
0	2083	215.803907715788	143
0	2101	217.256638212435	144
0	2103	218.270503263062	145
0	2121	220.182160019715	146
0	2139	221.411436114766	147
0	2141	222.44164432057	148
0	2147	224.351716933146	149
0	2165	226.247628123339	150
0	2183	227.491251644052	151
0	2189	229.464268274445	152
0	2207	230.782166139295	153
0	2225	232.659005707202	154
0	2227	234.034356138275	155
0	2245	235.675489070897	156
0	2247	236.920767014219	157
0	2265	238.121863031365	158
0	2283	239.286182347523	159
1	3	0.142870607559	0
1	3	0.142870607559	1
1	3	0.142870607559	2
1	21	1.73384129383	3
1	21	1.73384129383	4
1	21	1.73384129383	5
1	35	3.226285992769	6
1	35	3.226285992769	7
1	35	3.226285992769	8
1	55	6.159259268885	9
1	55	6.159259268885	10
1	55	6.159259268885	11
1	73	7.684933269636	12
1	73	7.684933269636	13
1	73	7.684933269636	14
1	91	8.833967974762	15
1	91	8.833967974762	16
1	91	8.833967974762	17
1	109	10.495313938754	18
1	109	10.495313938754	19
1	109	10.495313938754	20
1	131	15.244433985541	21
1	131	15.244433985541	22
1	131	15.244433985541	23
1	137	17.194340486792	24
1	137	17.194340486792	25
1	137	17.194340486792	26
1	157	20.792131629718	27
1	157	20.792131629718	28
1	157	20.792131629718	29
1	177	24.062610297257	30
1	177	24.062610297257	31
1	177	24.062610297257	32
1	197	27.540338997556	33
1	197	27.540338997556	34
1	197	27.540338997556	35
1	215	28.710848736481	36
1	215	28.710848736481	37
1	215	28.710848736481	38
1	233	30.599574643241	39
1	233	30.599574643241	40
1	233	30.599574643241	41
1	251	32.27858066276	42
1	251	32.27858066276	43
1	251	32.27858066276	44
1	269	33.89531845682	45
1	269	33.89531845682	46
1	269	33.89531845682	47
1	287	34.986337722425	48
1	287	34.986337722425	49
1	287	34.986337722425	50
1	307	38.006749069209	51
1	307	38.006749069209	52
1	307	38.006749069209	53
1	321	39.517911859133	54
1	321	39.517911859133	55
1	321	39.517911859133	56
1	341	43.252537943085	57
1	341	43.252537943085	58
1	341	43.252537943085	59
1	363	47.966033643851	60
1	363	47.966033643851	61
1	363	47.966033643851	62
1	381	49.467930637318	63
1	381	49.467930637318	64
1	381	49.467930637318	65
1	399	51.026476681903	66
1	399	51.026476681903	67
1	399	51.026476681903	68
1	417	52.085544482592	69
1	417	52.085544482592	70
1	417	52.085544482592	71
1	435	53.763663956337	72
1	435	53.763663956337	73
1	435	53.763663956337	74
1	453	55.664315463635	75
1	453	55.664315463635	76
1	453	55.664315463635	77
1	471	57.126949928876	78
1	471	57.126949928876	79
1	471	57.126949928876	80
1	489	58.279724502119	81
1	489	58.279724502119	82
1	489	58.279724502119	83
1	503	59.442752643811	84
1	503	59.442752643811	85
1	503	59.442752643811	86
1	521	61.175833226438	87
1	521	61.175833226438	88
1	521	61.175833226438	89
1	527	62.451531917354	90
1	527	62.451531917354	91
1	527	62.451531917354	92
1	545	64.009552482574	93
1	545	64.009552482574	94
1	545	64.009552482574	95
1	563	65.615724748724	96
1	563	65.615724748724	97
1	563	65.615724748724	98
1	581	67.463398536644	99
1	581	67.463398536644	100
1	581	67.463398536644	101
1	599	68.743146244299	102
1	599	68.743146244299	103
1	599	68.743146244299	104
1	617	70.071339266089	105
1	617	70.071339266089	106
1	617	70.071339266089	107
1	635	72.041765669581	108
1	635	72.041765669581	109
1	635	72.041765669581	110
1	653	73.782038227058	111
1	653	73.782038227058	112
1	653	73.782038227058	113
1	667	75.303110814965	114
1	667	75.303110814965	115
1	667	75.303110814965	116
1	681	76.962268997146	117
1	681	76.962268997146	118
1	681	76.962268997146	119
1	699	78.854799089229	120
1	699	78.854799089229	121
1	699	78.854799089229	122
1	717	80.269043726939	123
1	717	80.269043726939	124
1	717	80.269043726939	125
1	723	81.601787754383	126
1	723	81.601787754383	127
1	723	81.601787754383	128
1	741	82.731230410781	129
1	741	82.731230410781	130
1	741	82.731230410781	131
1	759	84.226502132388	132
1	759	84.226502132388	133
1	759	84.226502132388	134
1	777	85.709239318463	135
1	777	85.709239318463	136
1	777	85.709239318463	137
1	795	86.798628815338	138
1	795	86.798628815338	139
1	795	86.798628815338	140
1	813	88.238440476945	141
1	813	88.238440476945	142
1	813	88.238440476945	143
1	831	89.308245454831	144
1	831	89.308245454831	145
1	831	89.308245454831	146
1	849	90.890104786361	147
1	849	90.890104786361	148
1	849	90.890104786361	149
1	867	92.731328762348	150
1	867	92.731328762348	151
1	867	92.731328762348	152
1	885	94.344170537684	153
1	885	94.344170537684	154
1	885	94.344170537684	155
1	903	95.705029284823	156
1	903	95.705029284823	157
1	903	95.705029284823	158
1	921	96.824749464214	159
1	921	96.824749464214	160
1	921	96.824749464214	161
1	939	98.467858997365	162
1	939	98.467858997365	163
1	939	98.467858997365	164
1	957	99.818627732442	165
1	957	99.818627732442	166
1	957	99.818627732442	167
1	971	100.939226540642	168
1	971	100.939226540642	169
1	971	100.939226540642	170
1	989	102.35369280559	171
1	989	102.35369280559	172
1	989	102.35369280559	173
1	1007	103.906236406247	174
1	1007	103.906236406247	175
1	1007	103.906236406247	176
1	1025	104.927824758124	177
1	1025	104.927824758124	178
1	1025	104.927824758124	179
1	1043	106.452963058936	180
1	1043	106.452963058936	181
1	1043	106.452963058936	182
1	1063	108.759121661364	183
1	1063	108.759121661364	184
1	1063	108.759121661364	185
1	1083	111.555900952043	186
1	1083	111.555900952043	187
1	1083	111.555900952043	188
1	1101	112.802116685914	189
1	1101	112.802116685914	190
1	1101	112.802116685914	191
1	1119	113.827229351853	192
1	1119	113.827229351853	193
1	1119	113.827229351853	194
1	1137	115.696667054261	195
1	1137	115.696667054261	196
1	1137	115.696667054261	197
1	1147	117.376810603501	198
1	1147	117.376810603501	199
1	1147	117.376810603501	200
1	1165	118.700290180526	201
1	1165	118.700290180526	202
1	1165	118.700290180526	203
1	1183	120.028175810467	204
1	1183	120.028175810467	205
1	1183	120.028175810467	206
1	1203	123.43455050824	207
1	1203	123.43455050824	208
1	1203	123.43455050824	209
1	1221	125.103914144148	210
1	1221	125.103914144148	211
1	1221	125.103914144148	212
1	1239	127.064920429965	213
1	1239	127.064920429965	214
1	1239	127.064920429965	215
1	1257	128.061587250182	216
1	1257	128.061587250182	217
1	1257	128.061587250182	218
1	1277	130.685640448836	219
1	1277	130.685640448836	220
1	1277	130.685640448836	221
1	1295	132.264385076209	222
1	1295	132.264385076209	223
1	1295	132.264385076209	224
1	1301	133.440199518143	225
1	1301	133.440199518143	226
1	1301	133.440199518143	227
1	1319	134.55496950724	228
1	1319	134.55496950724	229
1	1319	134.55496950724	230
1	1337	136.034271242547	231
1	1337	136.034271242547	232
1	1337	136.034271242547	233
1	1355	137.889724966454	234
1	1355	137.889724966454	235
1	1355	137.889724966454	236
1	1373	139.220962969558	237
1	1373	139.220962969558	238
1	1373	139.220962969558	239
1	1391	140.343615406223	240
1	1391	140.343615406223	241
1	1391	140.343615406223	242
1	1409	142.091646223927	243
1	1409	142.091646223927	244
1	1409	142.091646223927	245
1	1427	143.388891194784	246
1	1427	143.388891194784	247
1	1427	143.388891194784	248
1	1447	146.412484488834	249
1	1447	146.412484488834	250
1	1447	146.412484488834	251
1	1465	147.769695779606	252
1	1465	147.769695779606	253
1	1465	147.769695779606	254
1	1483	149.029449113978	255
1	1483	149.029449113978	256
1	1483	149.029449113978	257
1	1501	150.619245103383	258
1	1501	150.619245103383	259
1	1501	150.619245103383	260
1	1519	152.412397792501	261
1	1519	152.412397792501	262
1	1519	152.412397792501	263
1	1537	154.383056648077	264
1	1537	154.383056648077	265
1	1537	154.383056648077	266
1	1555	156.280030050026	267
1	1555	156.280030050026	268
1	1555	156.280030050026	269
1	1573	157.474589106715	270
1	1573	157.474589106715	271
1	1573	157.474589106715	272
1	1591	159.253867787931	273
1	1591	159.253867787931	274
1	1591	159.253867787931	275
1	1609	160.873892502083	276
1	1609	160.873892502083	277
1	1609	160.873892502083	278
1	1627	162.572629977838	279
1	1627	162.572629977838	280
1	1627	162.572629977838	281
1	1645	163.655707881584	282
1	1645	163.655707881584	283
1	1645	163.655707881584	284
1	1665	166.569607306068	285
1	1665	166.569607306068	286
1	1665	166.569607306068	287
1	1687	171.503032248426	288
1	1687	171.503032248426	289
1	1687	171.503032248426	290
1	1707	175.047569946308	291
1	1707	175.047569946308	292
1	1707	175.047569946308	293
1	1725	176.204532718937	294
1	1725	176.204532718937	295
1	1725	176.204532718937	296
1	1745	179.19153321447	297
1	1745	179.19153321447	298
1	1745	179.19153321447	299
1	1763	180.898936533609	300
1	1763	180.898936533609	301
1	1763	180.898936533609	302
1	1781	182.081795114188	303
1	1781	182.081795114188	304
1	1781	182.081795114188	305
1	1799	183.46616788703	306
1	1799	183.46616788703	307
1	1799	183.46616788703	308
1	1821	188.153760402586	309
1	1821	188.153760402586	310
1	1821	188.153760402586	311
1	1839	189.333451645728	312
1	1839	189.333451645728	313
1	1839	189.333451645728	314
1	1857	190.892006971564	315
1	1857	190.892006971564	316
1	1857	190.892006971564	317
1	1877	194.776557176857	318
1	1877	194.776557176857	319
1	1877	194.776557176857	320
1	1895	196.772735548931	321
1	1895	196.772735548931	322
1	1895	196.772735548931	323
1	1913	198.171126609878	324
1	1913	198.171126609878	325
1	1913	198.171126609878	326
1	1931	199.401037036946	327
1	1931	199.401037036946	328
1	1931	199.401037036946	329
1	1949	200.517901550465	330
1	1949	200.517901550465	331
1	1949	200.517901550465	332
1	1967	201.878289198446	333
1	1967	201.878289198446	334
1	1967	201.878289198446	335
1	1985	203.60026876929	336
1	1985	203.60026876929	337
1	1985	203.60026876929	338
1	2005	206.589322870188	339
1	2005	206.589322870188	340
1	2005	206.589322870188	341
1	2025	209.48451418386	342
1	2025	209.48451418386	343
1	2025	209.48451418386	344
1	2031	211.33740153465	345
1	2031	211.33740153465	346
1	2031	211.33740153465	347
1	2049	213.062227319574	348
1	2049	213.062227319574	349
1	2049	213.062227319574	350
1	2067	214.172321609875	351
1	2067	214.172321609875	352
1	2067	214.172321609875	353
1	2085	215.81785471378	354
1	2085	215.81785471378	355
1	2085	215.81785471378	356
1	2105	218.285843496469	357
1	2105	218.285843496469	358
1	2105	218.285843496469	359
1	2123	220.203725027377	360
1	2123	220.203725027377	361
1	2123	220.203725027377	362
1	2143	222.451928130058	363
1	2143	222.451928130058	364
1	2143	222.451928130058	365
1	2149	224.363072011422	366
1	2149	224.363072011422	367
1	2149	224.363072011422	368
1	2167	226.319370094069	369
1	2167	226.319370094069	370
1	2167	226.319370094069	371
1	2185	227.501892079233	372
1	2185	227.501892079233	373
1	2185	227.501892079233	374
1	2191	229.48173271917	375
1	2191	229.48173271917	376
1	2191	229.48173271917	377
1	2209	230.80702553613	378
1	2209	230.80702553613	379
1	2209	230.80702553613	380
1	2229	234.056945098327	381
1	2229	234.056945098327	382
1	2229	234.056945098327	383
1	2249	236.931545496275	384
1	2249	236.931545496275	385
1	2249	236.931545496275	386
1	2267	238.154284777936	387
1	2267	238.154284777936	388
1	2267	238.154284777936	389
1	2285	239.303045019098	390
1	2285	239.303045019098	391
1	2285	239.303045019098	392
2	7	0.158381092426	0
2	7	0.158381092426	1
2	7	0.158381092426	2
2	29	1.769823834688	3
2	29	1.769823834688	4
2	29	1.769823834688	5
2	39	3.256694914928	6
2	39	3.256694914928	7
2	39	3.256694914928	8
2	59	6.175676215905	9
2	59	6.175676215905	10
2	59	6.175676215905	11
2	77	7.706384659183	12
2	77	7.706384659183	13
2	77	7.706384659183	14
2	96	8.847757594405	15
2	96	8.847757594405	16
2	96	8.847757594405	17
2	113	10.508234744087	18
2	113	10.508234744087	19
2	113	10.508234744087	20
2	141	17.210663852756	21
2	141	17.210663852756	22
2	141	17.210663852756	23
2	162	20.807480473476	24
2	162	20.807480473476	25
2	162	20.807480473476	26
2	189	24.099045237499	27
2	189	24.099045237499	28
2	189	24.099045237499	29
2	201	27.558769827877	30
2	201	27.558769827877	31
2	201	27.558769827877	32
2	219	28.726774976756	33
2	219	28.726774976756	34
2	219	28.726774976756	35
2	237	30.621368472577	36
2	237	30.621368472577	37
2	237	30.621368472577	38
2	256	32.299373864747	39
2	256	32.299373864747	40
2	256	32.299373864747	41
2	277	33.929505359187	42
2	277	33.929505359187	43
2	277	33.929505359187	44
2	291	34.997393848861	45
2	291	34.997393848861	46
2	291	34.997393848861	47
2	311	38.033216260222	48
2	311	38.033216260222	49
2	311	38.033216260222	50
2	333	39.597932639409	51
2	333	39.597932639409	52
2	333	39.597932639409	53
2	349	43.280995308606	54
2	349	43.280995308606	55
2	349	43.280995308606	56
2	372	48.00324712641	57
2	372	48.00324712641	58
2	372	48.00324712641	59
2	393	49.506821393237	60
2	393	49.506821393237	61
2	393	49.506821393237	62
2	403	51.041220844806	63
2	403	51.041220844806	64
2	403	51.041220844806	65
2	421	52.097989392812	66
2	421	52.097989392812	67
2	421	52.097989392812	68
2	439	53.783578999266	69
2	439	53.783578999266	70
2	439	53.783578999266	71
2	457	55.687440543565	72
2	457	55.687440543565	73
2	457	55.687440543565	74
2	475	57.140202089056	75
2	475	57.140202089056	76
2	475	57.140202089056	77
2	493	58.291749089756	78
2	493	58.291749089756	79
2	493	58.291749089756	80
2	512	59.484596192395	81
2	512	59.484596192395	82
2	512	59.484596192395	83
2	531	62.464841016166	84
2	531	62.464841016166	85
2	531	62.464841016166	86
2	554	64.049374489329	87
2	554	64.049374489329	88
2	554	64.049374489329	89
2	568	65.629990106844	90
2	568	65.629990106844	91
2	568	65.629990106844	92
2	585	67.475503869526	93
2	585	67.475503869526	94
2	585	67.475503869526	95
2	603	68.757198073122	96
2	603	68.757198073122	97
2	603	68.757198073122	98
2	621	70.082928597886	99
2	621	70.082928597886	100
2	621	70.082928597886	101
2	643	72.075319791262	102
2	643	72.075319791262	103
2	643	72.075319791262	104
2	658	73.796817406933	105
2	658	73.796817406933	106
2	658	73.796817406933	107
2	671	75.316114065768	108
2	671	75.316114065768	109
2	671	75.316114065768	110
2	685	76.972725377641	111
2	685	76.972725377641	112
2	685	76.972725377641	113
2	704	78.870427341247	114
2	704	78.870427341247	115
2	704	78.870427341247	116
2	727	81.635927918688	117
2	727	81.635927918688	118
2	727	81.635927918688	119
2	749	82.767118194558	120
2	749	82.767118194558	121
2	749	82.767118194558	122
2	768	84.269803401119	123
2	768	84.269803401119	124
2	768	84.269803401119	125
2	782	85.724756354589	126
2	782	85.724756354589	127
2	782	85.724756354589	128
2	800	86.813758085256	129
2	800	86.813758085256	130
2	800	86.813758085256	131
2	817	88.248776816154	132
2	817	88.248776816154	133
2	817	88.248776816154	134
2	836	89.319472604904	135
2	836	89.319472604904	136
2	836	89.319472604904	137
2	853	90.90078012793	138
2	853	90.90078012793	139
2	853	90.90078012793	140
2	872	92.749418559299	141
2	872	92.749418559299	142
2	872	92.749418559299	143
2	890	94.358455613726	144
2	890	94.358455613726	145
2	890	94.358455613726	146
2	915	95.745178967545	147
2	915	95.745178967545	148
2	915	95.745178967545	149
2	926	96.848564055012	150
2	926	96.848564055012	151
2	926	96.848564055012	152
2	943	98.487910153851	153
2	943	98.487910153851	154
2	943	98.487910153851	155
2	962	99.832092065717	156
2	962	99.832092065717	157
2	962	99.832092065717	158
2	979	101.020710409454	159
2	979	101.020710409454	160
2	979	101.020710409454	161
2	993	102.368829661723	162
2	993	102.368829661723	163
2	993	102.368829661723	164
2	1011	103.93606453205	165
2	1011	103.93606453205	166
2	1011	103.93606453205	167
2	1030	104.95022173893	168
2	1030	104.95022173893	169
2	1030	104.95022173893	170
2	1047	106.463042212401	171
2	1047	106.463042212401	172
2	1047	106.463042212401	173
2	1067	108.803815599752	174
2	1067	108.803815599752	175
2	1067	108.803815599752	176
2	1091	111.598807440346	177
2	1091	111.598807440346	178
2	1091	111.598807440346	179
2	1106	112.819455385584	180
2	1106	112.819455385584	181
2	1106	112.819455385584	182
2	1131	113.876643938699	183
2	1131	113.876643938699	184
2	1131	113.876643938699	185
2	1141	115.707901148976	186
2	1141	115.707901148976	187
2	1141	115.707901148976	188
2	1151	117.388559706102	189
2	1151	117.388559706102	190
2	1151	117.388559706102	191
2	1169	118.713132377961	192
2	1169	118.713132377961	193
2	1169	118.713132377961	194
2	1187	120.041806282011	195
2	1187	120.041806282011	196
2	1187	120.041806282011	197
2	1208	123.453896312403	198
2	1208	123.453896312403	199
2	1208	123.453896312403	200
2	1225	125.115346376863	201
2	1225	125.115346376863	202
2	1225	125.115346376863	203
2	1243	127.085070019549	204
2	1243	127.085070019549	205
2	1243	127.085070019549	206
2	1265	128.085253636268	207
2	1265	128.085253636268	208
2	1265	128.085253636268	209
2	1285	130.729594046605	210
2	1285	130.729594046605	211
2	1285	130.729594046605	212
2	1309	133.463567575222	213
2	1309	133.463567575222	214
2	1309	133.463567575222	215
2	1323	134.565374086797	216
2	1323	134.565374086797	217
2	1323	134.565374086797	218
2	1345	136.06009168823	219
2	1345	136.06009168823	220
2	1345	136.06009168823	221
2	1360	137.904923185903	222
2	1360	137.904923185903	223
2	1360	137.904923185903	224
2	1377	139.252971138302	225
2	1377	139.252971138302	226
2	1377	139.252971138302	227
2	1396	140.360916626426	228
2	1396	140.360916626426	229
2	1396	140.360916626426	230
2	1413	142.103204415788	231
2	1413	142.103204415788	232
2	1413	142.103204415788	233
2	1432	143.404564875981	234
2	1432	143.404564875981	235
2	1432	143.404564875981	236
2	1451	146.434221666113	237
2	1451	146.434221666113	238
2	1451	146.434221666113	239
2	1469	147.781933667327	240
2	1469	147.781933667327	241
2	1469	147.781933667327	242
2	1488	149.048938977446	243
2	1488	149.048938977446	244
2	1488	149.048938977446	245
2	1505	150.636600670932	246
2	1505	150.636600670932	247
2	1505	150.636600670932	248
2	1523	152.428278230618	249
2	1523	152.428278230618	250
2	1523	152.428278230618	251
2	1541	154.395865559632	252
2	1541	154.395865559632	253
2	1541	154.395865559632	254
2	1559	156.291527502109	255
2	1559	156.291527502109	256
2	1559	156.291527502109	257
2	1577	157.489813399148	258
2	1577	157.489813399148	259
2	1577	157.489813399148	260
2	1596	159.26674991961	261
2	1596	159.26674991961	262
2	1596	159.26674991961	263
2	1613	160.888230163978	264
2	1613	160.888230163978	265
2	1613	160.888230163978	266
2	1631	162.5865163135	267
2	1631	162.5865163135	268
2	1631	162.5865163135	269
2	1654	163.692648458434	270
2	1654	163.692648458434	271
2	1654	163.692648458434	272
2	1673	166.607151651996	273
2	1673	166.607151651996	274
2	1673	166.607151651996	275
2	1691	171.526248149488	276
2	1691	171.526248149488	277
2	1691	171.526248149488	278
2	1711	175.079216218065	279
2	1711	175.079216218065	280
2	1711	175.079216218065	281
2	1729	176.221013422534	282
2	1729	176.221013422534	283
2	1729	176.221013422534	284
2	1750	179.20745496251	285
2	1750	179.20745496251	286
2	1750	179.20745496251	287
2	1768	180.924812826485	288
2	1768	180.924812826485	289
2	1768	180.924812826485	290
2	1786	182.100184847017	291
2	1786	182.100184847017	292
2	1786	182.100184847017	293
2	1803	183.478543542459	294
2	1803	183.478543542459	295
2	1803	183.478543542459	296
2	1829	188.221485239559	297
2	1829	188.221485239559	298
2	1829	188.221485239559	299
2	1843	189.350086862577	300
2	1843	189.350086862577	301
2	1843	189.350086862577	302
2	1861	190.902445698344	303
2	1861	190.902445698344	304
2	1861	190.902445698344	305
2	1882	194.78913662915	306
2	1882	194.78913662915	307
2	1882	194.78913662915	308
2	1899	196.785190243752	309
2	1899	196.785190243752	310
2	1899	196.785190243752	311
2	1918	198.203149294332	312
2	1918	198.203149294332	313
2	1918	198.203149294332	314
2	1939	199.447397218268	315
2	1939	199.447397218268	316
2	1939	199.447397218268	317
2	1958	200.554498755105	318
2	1958	200.554498755105	319
2	1958	200.554498755105	320
2	1975	201.908990621828	321
2	1975	201.908990621828	322
2	1975	201.908990621828	323
2	1989	203.61129658961	324
2	1989	203.61129658961	325
2	1989	203.61129658961	326
2	2014	206.620485708668	327
2	2014	206.620485708668	328
2	2014	206.620485708668	329
2	2036	211.356284375672	330
2	2036	211.356284375672	331
2	2036	211.356284375672	332
2	2053	213.074277269315	333
2	2053	213.074277269315	334
2	2053	213.074277269315	335
2	2071	214.185257033908	336
2	2071	214.185257033908	337
2	2071	214.185257033908	338
2	2090	215.83347793803	339
2	2090	215.83347793803	340
2	2090	215.83347793803	341
2	2109	218.298493217826	342
2	2109	218.298493217826	343
2	2109	218.298493217826	344
2	2128	220.22088349185	345
2	2128	220.22088349185	346
2	2128	220.22088349185	347
2	2161	224.409998748634	348
2	2161	224.409998748634	349
2	2161	224.409998748634	350
2	2171	226.329808632786	351
2	2171	226.329808632786	352
2	2171	226.329808632786	353
2	2195	229.501279345852	354
2	2195	229.501279345852	355
2	2195	229.501279345852	356
2	2213	230.817709119679	357
2	2213	230.817709119679	358
2	2213	230.817709119679	359
2	2233	234.105182354064	360
2	2233	234.105182354064	361
2	2233	234.105182354064	362
2	2253	236.950791825473	363
2	2253	236.950791825473	364
2	2253	236.950791825473	365
2	2279	238.193815699385	366
2	2279	238.193815699385	367
2	2279	238.193815699385	368
2	2293	239.326876665309	369
2	2293	239.326876665309	370
2	2293	239.326876665309	371
3	8	0.160742618959	0
3	8	0.160742618959	1
3	8	0.160742618959	2
3	25	1.752235622359	3
3	25	1.752235622359	4
3	25	1.752235622359	5
3	44	3.282747310499	6
3	44	3.282747310499	7
3	44	3.282747310499	8
3	67	6.211469602658	9
3	67	6.211469602658	10
3	67	6.211469602658	11
3	82	7.723712419849	12
3	82	7.723712419849	13
3	82	7.723712419849	14
3	95	8.845348261646	15
3	95	8.845348261646	16
3	95	8.845348261646	17
3	114	10.515901365905	18
3	114	10.515901365905	19
3	114	10.515901365905	20
3	145	17.241830801388	21
3	145	17.241830801388	22
3	145	17.241830801388	23
3	161	20.805958639207	24
3	161	20.805958639207	25
3	161	20.805958639207	26
3	181	24.076445899398	27
3	181	24.076445899398	28
3	181	24.076445899398	29
3	205	27.582057406615	30
3	205	27.582057406615	31
3	205	27.582057406615	32
3	224	28.75137155305	33
3	224	28.75137155305	34
3	224	28.75137155305	35
3	238	30.630922947741	36
3	238	30.630922947741	37
3	238	30.630922947741	38
3	255	32.292169934919	39
3	255	32.292169934919	40
3	255	32.292169934919	41
3	273	33.913859254176	42
3	273	33.913859254176	43
3	273	33.913859254176	44
3	295	35.008507917378	45
3	295	35.008507917378	46
3	295	35.008507917378	47
3	312	38.035588358075	48
3	312	38.035588358075	49
3	312	38.035588358075	50
3	325	39.540715201171	51
3	325	39.540715201171	52
3	325	39.540715201171	53
3	345	43.264769335166	54
3	345	43.264769335166	55
3	345	43.264769335166	56
3	367	47.978750324554	57
3	367	47.978750324554	58
3	367	47.978750324554	59
3	385	49.479990957803	60
3	385	49.479990957803	61
3	385	49.479990957803	62
3	404	51.04839526294	63
3	404	51.04839526294	64
3	404	51.04839526294	65
3	429	52.141941007856	66
3	429	52.141941007856	67
3	429	52.141941007856	68
3	440	53.791445389705	69
3	440	53.791445389705	70
3	440	53.791445389705	71
3	462	55.703760266409	72
3	462	55.703760266409	73
3	462	55.703760266409	74
3	476	57.143178221974	75
3	476	57.143178221974	76
3	476	57.143178221974	77
3	494	58.298058284525	78
3	494	58.298058284525	79
3	494	58.298058284525	80
3	507	59.466562274768	81
3	507	59.466562274768	82
3	507	59.466562274768	83
3	535	62.476910204499	84
3	535	62.476910204499	85
3	535	62.476910204499	86
3	549	64.022188253702	87
3	549	64.022188253702	88
3	549	64.022188253702	89
3	567	65.625858001172	90
3	567	65.625858001172	91
3	567	65.625858001172	92
3	589	67.490664870441	93
3	589	67.490664870441	94
3	589	67.490664870441	95
3	607	68.768020541842	96
3	607	68.768020541842	97
3	607	68.768020541842	98
3	626	70.096061307669	99
3	626	70.096061307669	100
3	626	70.096061307669	101
3	639	72.064750125937	102
3	639	72.064750125937	103
3	639	72.064750125937	104
3	657	73.795372260442	105
3	657	73.795372260442	106
3	657	73.795372260442	107
3	675	75.328134942902	108
3	675	75.328134942902	109
3	675	75.328134942902	110
3	686	76.978428189984	111
3	686	76.978428189984	112
3	686	76.978428189984	113
3	703	78.865159117526	114
3	703	78.865159117526	115
3	703	78.865159117526	116
3	735	81.693007601414	117
3	735	81.693007601414	118
3	735	81.693007601414	119
3	745	82.755368244076	120
3	745	82.755368244076	121
3	745	82.755368244076	122
3	763	84.242612708001	123
3	763	84.242612708001	124
3	763	84.242612708001	125
3	781	85.719886975391	126
3	781	85.719886975391	127
3	781	85.719886975391	128
3	799	86.810677338009	129
3	799	86.810677338009	130
3	799	86.810677338009	131
3	818	88.257971702328	132
3	818	88.257971702328	133
3	818	88.257971702328	134
3	835	89.318366547282	135
3	835	89.318366547282	136
3	835	89.318366547282	137
3	861	90.94558302488	138
3	861	90.94558302488	139
3	861	90.94558302488	140
3	871	92.746846783564	141
3	871	92.746846783564	142
3	871	92.746846783564	143
3	889	94.356818360417	144
3	889	94.356818360417	145
3	889	94.356818360417	146
3	907	95.716148730234	147
3	907	95.716148730234	148
3	907	95.716148730234	149
3	925	96.83943824577	150
3	925	96.83943824577	151
3	925	96.83943824577	152
3	947	98.506433250843	153
3	947	98.506433250843	154
3	947	98.506433250843	155
3	961	99.829362796216	156
3	961	99.829362796216	157
3	961	99.829362796216	158
3	975	100.97180130855	159
3	975	100.97180130855	160
3	975	100.97180130855	161
3	994	102.369770653231	162
3	994	102.369770653231	163
3	994	102.369770653231	164
3	1012	103.942027537555	165
3	1012	103.942027537555	166
3	1012	103.942027537555	167
3	1029	104.947563544039	168
3	1029	104.947563544039	169
3	1029	104.947563544039	170
3	1051	106.47535342401	171
3	1051	106.47535342401	172
3	1051	106.47535342401	173
3	1071	108.815045225421	174
3	1071	108.815045225421	175
3	1071	108.815045225421	176
3	1087	111.574786239166	177
3	1087	111.574786239166	178
3	1087	111.574786239166	179
3	1105	112.817951287637	180
3	1105	112.817951287637	181
3	1105	112.817951287637	182
3	1123	113.838661838891	183
3	1123	113.838661838891	184
3	1123	113.838661838891	185
3	1152	117.390377766028	186
3	1152	117.390377766028	187
3	1152	117.390377766028	188
3	1170	118.722212702947	189
3	1170	118.722212702947	190
3	1170	118.722212702947	191
3	1188	120.045703506987	192
3	1188	120.045703506987	193
3	1188	120.045703506987	194
3	1207	123.445203444196	195
3	1207	123.445203444196	196
3	1207	123.445203444196	197
3	1233	125.14914565756	198
3	1233	125.14914565756	199
3	1233	125.14914565756	200
3	1244	127.087700451257	201
3	1244	127.087700451257	202
3	1244	127.087700451257	203
3	1261	128.072234086233	204
3	1261	128.072234086233	205
3	1261	128.072234086233	206
3	1281	130.714489094978	207
3	1281	130.714489094978	208
3	1281	130.714489094978	209
3	1305	133.452964394984	210
3	1305	133.452964394984	211
3	1305	133.452964394984	212
3	1327	134.578538360709	213
3	1327	134.578538360709	214
3	1327	134.578538360709	215
3	1341	136.049365527649	216
3	1341	136.049365527649	217
3	1341	136.049365527649	218
3	1359	137.904917503703	219
3	1359	137.904917503703	220
3	1359	137.904917503703	221
3	1385	139.283157775901	222
3	1385	139.283157775901	223
3	1385	139.283157775901	224
3	1395	140.353808487275	225
3	1395	140.353808487275	226
3	1395	140.353808487275	227
3	1417	142.113882974568	228
3	1417	142.113882974568	229
3	1417	142.113882974568	230
3	1431	143.401117583304	231
3	1431	143.401117583304	232
3	1431	143.401117583304	233
3	1452	146.443552410093	234
3	1452	146.443552410093	235
3	1452	146.443552410093	236
3	1473	147.795181835373	237
3	1473	147.795181835373	238
3	1473	147.795181835373	239
3	1487	149.041416320864	240
3	1487	149.041416320864	241
3	1487	149.041416320864	242
3	1509	150.655955353118	243
3	1509	150.655955353118	244
3	1509	150.655955353118	245
3	1524	152.428531973162	246
3	1524	152.428531973162	247
3	1524	152.428531973162	248
3	1542	154.404317176054	249
3	1542	154.404317176054	250
3	1542	154.404317176054	251
3	1563	156.30862411575	252
3	1563	156.30862411575	253
3	1563	156.30862411575	254
3	1582	157.508211734162	255
3	1582	157.508211734162	256
3	1582	157.508211734162	257
3	1595	159.26664086322	258
3	1595	159.26664086322	259
3	1595	159.26664086322	260
3	1618	160.914756473472	261
3	1618	160.914756473472	262
3	1618	160.914756473472	263
3	1635	162.601675130725	264
3	1635	162.601675130725	265
3	1635	162.601675130725	266
3	1649	163.668043018644	267
3	1649	163.668043018644	268
3	1649	163.668043018644	269
3	1669	166.59631717182	270
3	1669	166.59631717182	271
3	1669	166.59631717182	272
3	1692	171.534427023656	273
3	1692	171.534427023656	274
3	1692	171.534427023656	275
3	1716	175.095823368999	276
3	1716	175.095823368999	277
3	1716	175.095823368999	278
3	1733	176.232612778573	279
3	1733	176.232612778573	280
3	1733	176.232612778573	281
3	1749	179.205339123463	282
3	1749	179.205339123463	283
3	1749	179.205339123463	284
3	1767	180.924040581796	285
3	1767	180.924040581796	286
3	1767	180.924040581796	287
3	1785	182.097743876747	288
3	1785	182.097743876747	289
3	1785	182.097743876747	290
3	1804	183.480447938535	291
3	1804	183.480447938535	292
3	1804	183.480447938535	293
3	1825	188.203126463884	294
3	1825	188.203126463884	295
3	1825	188.203126463884	296
3	1844	189.350735785482	297
3	1844	189.350735785482	298
3	1844	189.350735785482	299
3	1869	190.925352853785	300
3	1869	190.925352853785	301
3	1869	190.925352853785	302
3	1881	194.788069871307	303
3	1881	194.788069871307	304
3	1881	194.788069871307	305
3	1904	196.799620327211	306
3	1904	196.799620327211	307
3	1904	196.799620327211	308
3	1917	198.200341149238	309
3	1917	198.200341149238	310
3	1917	198.200341149238	311
3	1935	199.424123988543	312
3	1935	199.424123988543	313
3	1935	199.424123988543	314
3	1953	200.535556755203	315
3	1953	200.535556755203	316
3	1953	200.535556755203	317
3	1971	201.895069053663	318
3	1971	201.895069053663	319
3	1971	201.895069053663	320
3	1993	203.623619200133	321
3	1993	203.623619200133	322
3	1993	203.623619200133	323
3	2009	206.599772586867	324
3	2009	206.599772586867	325
3	2009	206.599772586867	326
3	2035	211.35019441367	327
3	2035	211.35019441367	328
3	2035	211.35019441367	329
3	2054	213.078969001869	330
3	2054	213.078969001869	331
3	2054	213.078969001869	332
3	2072	214.186629329006	333
3	2072	214.186629329006	334
3	2072	214.186629329006	335
3	2089	215.828100435238	336
3	2089	215.828100435238	337
3	2089	215.828100435238	338
3	2113	218.313200180964	339
3	2113	218.313200180964	340
3	2113	218.313200180964	341
3	2127	220.213839228242	342
3	2127	220.213839228242	343
3	2127	220.213839228242	344
3	2153	224.376146092924	345
3	2153	224.376146092924	346
3	2153	224.376146092924	347
3	2172	226.338984465128	348
3	2172	226.338984465128	349
3	2172	226.338984465128	350
3	2203	229.525861851797	351
3	2203	229.525861851797	352
3	2203	229.525861851797	353
3	2214	230.824344206525	354
3	2214	230.824344206525	355
3	2214	230.824344206525	356
3	2238	234.138851608796	357
3	2238	234.138851608796	358
3	2238	234.138851608796	359
3	2261	236.985682047317	360
3	2261	236.985682047317	361
3	2261	236.985682047317	362
3	2271	238.167581763135	363
3	2271	238.167581763135	364
3	2271	238.167581763135	365
3	2289	239.314125842171	366
3	2289	239.314125842171	367
3	2289	239.314125842171	368
4	15	0.174136284395	0
4	15	0.174136284395	1
4	15	0.174136284395	2
4	43	3.272884209524	3
4	43	3.272884209524	4
4	43	3.272884209524	5
4	63	6.199029117751	6
4	63	6.199029117751	7
4	63	6.199029117751	8
4	81	7.72212998325	9
4	81	7.72212998325	10
4	81	7.72212998325	11
4	103	8.859279387219	12
4	103	8.859279387219	13
4	103	8.859279387219	14
4	118	10.521037514172	15
4	118	10.521037514172	16
4	118	10.521037514172	17
4	149	17.26527325411	18
4	149	17.26527325411	19
4	149	17.26527325411	20
4	169	20.837512878701	21
4	169	20.837512878701	22
4	169	20.837512878701	23
4	185	24.087859206534	24
4	185	24.087859206534	25
4	185	24.087859206534	26
4	209	27.601521259654	27
4	209	27.601521259654	28
4	209	27.601521259654	29
4	223	28.748797362428	30
4	223	28.748797362428	31
4	223	28.748797362428	32
4	242	30.638326467186	33
4	242	30.638326467186	34
4	242	30.638326467186	35
4	260	32.307006291785	36
4	260	32.307006291785	37
4	260	32.307006291785	38
4	278	33.934417750263	39
4	278	33.934417750263	40
4	278	33.934417750263	41
4	299	35.01991992411	42
4	299	35.01991992411	43
4	299	35.01991992411	44
4	329	39.58781480709	45
4	329	39.58781480709	46
4	329	39.58781480709	47
4	353	43.31984075149	48
4	353	43.31984075149	49
4	353	43.31984075149	50
4	371	48.000116289507	51
4	371	48.000116289507	52
4	371	48.000116289507	53
4	389	49.496007747668	54
4	389	49.496007747668	55
4	389	49.496007747668	56
4	408	51.051470728339	57
4	408	51.051470728339	58
4	408	51.051470728339	59
4	425	52.11104544183	60
4	425	52.11104544183	61
4	425	52.11104544183	62
4	444	53.796774745815	63
4	444	53.796774745815	64
4	444	53.796774745815	65
4	461	55.699839778759	66
4	461	55.699839778759	67
4	461	55.699839778759	68
4	483	57.170142481069	69
4	483	57.170142481069	70
4	483	57.170142481069	71
4	511	59.477433360601	72
4	511	59.477433360601	73
4	511	59.477433360601	74
4	539	62.493558281995	75
4	539	62.493558281995	76
4	539	62.493558281995	77
4	553	64.044760623658	78
4	553	64.044760623658	79
4	553	64.044760623658	80
4	575	65.653996863814	81
4	575	65.653996863814	82
4	575	65.653996863814	83
4	593	67.501694554078	84
4	593	67.501694554078	85
4	593	67.501694554078	86
4	608	68.772427749659	87
4	608	68.772427749659	88
4	608	68.772427749659	89
4	625	70.093867343359	90
4	625	70.093867343359	91
4	625	70.093867343359	92
4	644	72.076159804781	93
4	644	72.076159804781	94
4	644	72.076159804781	95
4	690	76.9835261662	96
4	690	76.9835261662	97
4	690	76.9835261662	98
4	708	78.87690106913	99
4	708	78.87690106913	100
4	708	78.87690106913	101
4	731	81.662041238679	102
4	731	81.662041238679	103
4	731	81.662041238679	104
4	750	82.768112879296	105
4	750	82.768112879296	106
4	750	82.768112879296	107
4	767	84.261187059027	108
4	767	84.261187059027	109
4	767	84.261187059027	110
4	789	85.742895349666	111
4	789	85.742895349666	112
4	789	85.742895349666	113
4	807	86.832080126778	114
4	807	86.832080126778	115
4	807	86.832080126778	116
4	822	88.264376899887	117
4	822	88.264376899887	118
4	822	88.264376899887	119
4	843	89.331172306544	120
4	843	89.331172306544	121
4	843	89.331172306544	122
4	857	90.914182500126	123
4	857	90.914182500126	124
4	857	90.914182500126	125
4	879	92.774137979941	126
4	879	92.774137979941	127
4	879	92.774137979941	128
4	897	94.369792095696	129
4	897	94.369792095696	130
4	897	94.369792095696	131
4	911	95.730582074194	132
4	911	95.730582074194	133
4	911	95.730582074194	134
4	933	96.865311818067	135
4	933	96.865311818067	136
4	933	96.865311818067	137
4	951	98.526079271151	138
4	951	98.526079271151	139
4	951	98.526079271151	140
4	983	101.033703939483	141
4	983	101.033703939483	142
4	983	101.033703939483	143
4	1001	102.385879154937	144
4	1001	102.385879154937	145
4	1001	102.385879154937	146
4	1016	103.948990038062	147
4	1016	103.948990038062	148
4	1016	103.948990038062	149
4	1037	104.968868116022	150
4	1037	104.968868116022	151
4	1037	104.968868116022	152
4	1055	106.510878188945	153
4	1055	106.510878188945	154
4	1055	106.510878188945	155
4	1075	108.836928517024	156
4	1075	108.836928517024	157
4	1075	108.836928517024	158
4	1095	111.620362187633	159
4	1095	111.620362187633	160
4	1095	111.620362187633	161
4	1113	112.844384819989	162
4	1113	112.844384819989	163
4	1113	112.844384819989	164
4	1127	113.858382328576	165
4	1127	113.858382328576	166
4	1127	113.858382328576	167
4	1159	117.404472733958	168
4	1159	117.404472733958	169
4	1159	117.404472733958	170
4	1174	118.723750539447	171
4	1174	118.723750539447	172
4	1174	118.723750539447	173
4	1195	120.062064541531	174
4	1195	120.062064541531	175
4	1195	120.062064541531	176
4	1212	123.460365478745	177
4	1212	123.460365478745	178
4	1212	123.460365478745	179
4	1229	125.129553053587	180
4	1229	125.129553053587	181
4	1229	125.129553053587	182
4	1251	127.132461504329	183
4	1251	127.132461504329	184
4	1251	127.132461504329	185
4	1269	128.097230953947	186
4	1269	128.097230953947	187
4	1269	128.097230953947	188
4	1289	130.765488437905	189
4	1289	130.765488437905	190
4	1289	130.765488437905	191
4	1313	133.48259562788	192
4	1313	133.48259562788	193
4	1313	133.48259562788	194
4	1328	134.580545756068	195
4	1328	134.580545756068	196
4	1328	134.580545756068	197
4	1346	136.068898386961	198
4	1346	136.068898386961	199
4	1346	136.068898386961	200
4	1367	137.927432593273	201
4	1367	137.927432593273	202
4	1367	137.927432593273	203
4	1381	139.263267385825	204
4	1381	139.263267385825	205
4	1381	139.263267385825	206
4	1403	140.3765570018	207
4	1403	140.3765570018	208
4	1403	140.3765570018	209
4	1421	142.132603033384	210
4	1421	142.132603033384	211
4	1421	142.132603033384	212
4	1439	143.414708540132	213
4	1439	143.414708540132	214
4	1439	143.414708540132	215
4	1459	146.458462976269	216
4	1459	146.458462976269	217
4	1459	146.458462976269	218
4	1477	147.806430443951	219
4	1477	147.806430443951	220
4	1477	147.806430443951	221
4	1495	149.068319058602	222
4	1495	149.068319058602	223
4	1495	149.068319058602	224
4	1513	150.667588855218	225
4	1513	150.667588855218	226
4	1513	150.667588855218	227
4	1531	152.459537536317	228
4	1531	152.459537536317	229
4	1531	152.459537536317	230
4	1546	154.407681351809	231
4	1546	154.407681351809	232
4	1546	154.407681351809	233
4	1567	156.320033358575	234
4	1567	156.320033358575	235
4	1567	156.320033358575	236
4	1581	157.502644417438	237
4	1581	157.502644417438	238
4	1581	157.502644417438	239
4	1603	159.276891509096	240
4	1603	159.276891509096	241
4	1603	159.276891509096	242
4	1617	160.912925497137	243
4	1617	160.912925497137	244
4	1617	160.912925497137	245
4	1636	162.61019037069	246
4	1636	162.61019037069	247
4	1636	162.61019037069	248
4	1653	163.687261811227	249
4	1653	163.687261811227	250
4	1653	163.687261811227	251
4	1677	166.631220957449	252
4	1677	166.631220957449	253
4	1677	166.631220957449	254
4	1696	171.540924390261	255
4	1696	171.540924390261	256
4	1696	171.540924390261	257
4	1715	175.090728122329	258
4	1715	175.090728122329	259
4	1715	175.090728122329	260
4	1734	176.233982893122	261
4	1734	176.233982893122	262
4	1734	176.233982893122	263
4	1757	179.218437144809	264
4	1757	179.218437144809	265
4	1757	179.218437144809	266
4	1775	180.945104112446	267
4	1775	180.945104112446	268
4	1775	180.945104112446	269
4	1790	182.10863302037	270
4	1790	182.10863302037	271
4	1790	182.10863302037	272
4	1811	183.50942044509	273
4	1811	183.50942044509	274
4	1811	183.50942044509	275
4	1833	188.233038620289	276
4	1833	188.233038620289	277
4	1833	188.233038620289	278
4	1851	189.378272425655	279
4	1851	189.378272425655	280
4	1851	189.378272425655	281
4	1865	190.913496336673	282
4	1865	190.913496336673	283
4	1865	190.913496336673	284
4	1889	194.837086952487	285
4	1889	194.837086952487	286
4	1889	194.837086952487	287
4	1903	196.796961887861	288
4	1903	196.796961887861	289
4	1903	196.796961887861	290
4	1922	198.211597252731	291
4	1922	198.211597252731	292
4	1922	198.211597252731	293
4	1940	199.455257971386	294
4	1940	199.455257971386	295
4	1940	199.455257971386	296
4	1957	200.549183305333	297
4	1957	200.549183305333	298
4	1957	200.549183305333	299
4	1976	201.910775281243	300
4	1976	201.910775281243	301
4	1976	201.910775281243	302
4	1997	203.63621528593	303
4	1997	203.63621528593	304
4	1997	203.63621528593	305
4	2013	206.611004001936	306
4	2013	206.611004001936	307
4	2013	206.611004001936	308
4	2043	211.366930021575	309
4	2043	211.366930021575	310
4	2043	211.366930021575	311
4	2061	213.095345319062	312
4	2061	213.095345319062	313
4	2061	213.095345319062	314
4	2076	214.196618599642	315
4	2076	214.196618599642	316
4	2076	214.196618599642	317
4	2097	215.844885630723	318
4	2097	215.844885630723	319
4	2097	215.844885630723	320
4	2117	218.324158315878	321
4	2117	218.324158315878	322
4	2117	218.324158315878	323
4	2135	220.241416847985	324
4	2135	220.241416847985	325
4	2135	220.241416847985	326
4	2157	224.399257147561	327
4	2157	224.399257147561	328
4	2157	224.399257147561	329
4	2179	226.364259841203	330
4	2179	226.364259841203	331
4	2179	226.364259841203	332
4	2199	229.514788402569	333
4	2199	229.514788402569	334
4	2199	229.514788402569	335
4	2218	230.83347620923	336
4	2218	230.83347620923	337
4	2218	230.83347620923	338
4	2237	234.132130368309	339
4	2237	234.132130368309	340
4	2237	234.132130368309	341
4	2257	236.969543141329	342
4	2257	236.969543141329	343
4	2257	236.969543141329	344
4	2275	238.183530824812	345
4	2275	238.183530824812	346
4	2275	238.183530824812	347
4	2297	239.34924508794	348
4	2297	239.34924508794	349
4	2297	239.34924508794	350
5	18	0.184136284395	0
5	47	3.282884209524	1
5	124	10.531037514172	2
5	152	17.27527325411	3
5	172	20.847512878701	4
5	188	24.097859206534	5
5	212	27.611521259654	6
5	227	28.758797362428	7
5	248	30.648326467186	8
5	266	32.317006291785	9
5	284	33.944417750263	10
5	302	35.02991992411	11
5	332	39.59781480709	12
5	356	43.32984075149	13
5	375	48.010116289507	14
5	392	49.506007747668	15
5	414	51.061470728339	16
5	428	52.12104544183	17
5	450	53.806774745815	18
5	465	55.709839778759	19
5	542	62.503558281995	20
5	557	64.054760623658	21
5	578	65.663996863814	22
5	596	67.511694554078	23
5	629	70.103867343359	24
5	650	72.086159804781	25
5	696	76.9935261662	26
5	756	82.778112879296	27
5	771	84.271187059027	28
5	792	85.752895349666	29
5	810	86.842080126778	30
5	828	88.274376899887	31
5	860	90.924182500126	32
5	882	92.784137979941	33
5	900	94.379792095696	34
5	914	95.740582074194	35
5	936	96.875311818067	36
5	954	98.536079271151	37
5	986	101.043703939483	38
5	1004	102.395879154937	39
5	1022	103.958990038062	40
5	1040	104.978868116022	41
5	1058	106.520878188945	42
5	1078	108.846928517024	43
5	1098	111.630362187633	44
5	1116	112.854384819989	45
5	1130	113.868382328576	46
5	1162	117.414472733958	47
5	1180	118.733750539447	48
5	1198	120.072064541531	49
5	1218	123.470365478745	50
5	1232	125.139553053587	51
5	1254	127.142461504329	52
5	1292	130.775488437905	53
5	1316	133.49259562788	54
5	1334	134.590545756068	55
5	1352	136.078898386961	56
5	1370	137.937432593273	57
5	1384	139.273267385825	58
5	1424	142.142603033384	59
5	1442	143.424708540132	60
5	1462	146.468462976269	61
5	1498	149.078319058602	62
5	1516	150.677588855218	63
5	1534	152.469537536317	64
5	1552	154.417681351809	65
5	1585	157.512644417438	66
5	1606	159.286891509096	67
5	1621	160.922925497137	68
5	1680	166.641220957449	69
5	1702	171.550924390261	70
5	1719	175.100728122329	71
5	1740	176.243982893122	72
5	1760	179.228437144809	73
5	1778	180.955104112446	74
5	1796	182.11863302037	75
5	1814	183.51942044509	76
5	1836	188.243038620289	77
5	1868	190.923496336673	78
5	1892	194.847086952487	79
5	1907	196.806961887861	80
5	1928	198.221597252731	81
5	1946	199.465257971386	82
5	1982	201.920775281243	83
5	2000	203.64621528593	84
5	2046	211.376930021575	85
5	2064	213.105345319062	86
5	2082	214.206618599642	87
5	2100	215.854885630723	88
5	2120	218.334158315878	89
5	2160	224.409257147561	90
5	2202	229.524788402569	91
5	2224	230.84347620923	92
5	2241	234.142130368309	93
5	2260	236.979543141329	94

