version 2
run General-1-20230921-21:32:46-5507
attr configname General
attr datetime 20230921-21:32:46
attr experiment General
attr inifile omnetpp.ini
attr iterationvars ""
attr iterationvarsf ""
attr measurement ""
attr network Network1
attr processid 5507
attr repetition 1
attr replication #1
attr resultdir results
attr runnumber 1
attr seedset 1
param Network1.node[*].transmissionTime "uniform(1s, 2s)"
param Network1.node[*].delayTime "uniform(0.01s, 0.2s)"
param Network1.node[*].processingTime exponential(0.01s)
param Network1.node[*].lossProbability 0.2

vector 0 Network1.node[0] txVector ETV
vector 1 Network1.node[1] txVector ETV
vector 2 Network1.node[3] txVector ETV
vector 3 Network1.node[2] txVector ETV
vector 4 Network1.node[4] txVector ETV
vector 5 Network1.node[5] rxVector ETV
0	1	0.089234179703	0
0	19	2.086418987836	1
0	37	3.932729906055	2
0	39	5.871857700988	3
0	57	7.650246936481	4
0	75	8.709490133568	5
0	77	10.12202897866	6
0	95	11.156200288681	7
0	113	13.059570460001	8
0	115	14.673508778334	9
0	133	16.630044437133	10
0	151	17.770010557378	11
0	169	19.422309435558	12
0	187	20.778841152441	13
0	205	22.720678100249	14
0	223	24.429720622607	15
0	241	26.172485449704	16
0	243	27.568798737953	17
0	245	28.676164046282	18
0	263	30.185974324474	19
0	281	31.603900862744	20
0	283	33.032283272248	21
0	285	34.394187721776	22
0	287	35.547526205776	23
0	289	37.484716531707	24
0	291	39.401126404878	25
0	301	41.183084867548	26
0	319	42.47744433943	27
0	333	44.218399896639	28
0	347	45.258083398574	29
0	365	46.766872137207	30
0	367	47.929077648445	31
0	373	49.285541330351	32
0	391	51.216554258837	33
0	393	52.903612557686	34
0	411	54.330423401556	35
0	429	55.497374994102	36
0	447	57.190560192223	37
0	465	58.724937528958	38
0	483	60.302005161885	39
0	493	62.117105219168	40
0	511	63.132978198937	41
0	529	64.342471079788	42
0	547	65.347134392596	43
0	565	66.514965191371	44
0	579	68.032559178657	45
0	597	69.076831475952	46
0	599	70.121249417895	47
0	609	71.402466309377	48
0	627	72.924752877447	49
0	629	74.365581199414	50
0	643	75.845859382422	51
0	661	77.450962618579	52
0	679	79.439027296266	53
0	697	80.440040576159	54
0	699	82.144375603999	55
0	717	83.729734817174	56
0	735	84.775395984183	57
0	753	86.434595949369	58
0	771	88.239831788585	59
0	789	89.886585702774	60
0	807	90.975201961937	61
0	825	92.107631595925	62
0	843	93.49545938487	63
0	845	95.098954032295	64
0	847	96.778973178592	65
0	865	98.362932966909	66
0	879	100.033864979519	67
0	897	101.752954339728	68
0	899	102.83073321346	69
0	901	104.446037445337	70
0	919	106.283841312983	71
0	921	107.773540922328	72
0	939	109.662915670666	73
0	957	111.435231003565	74
0	975	112.579173849783	75
0	993	114.473870458434	76
0	1011	116.048214680868	77
0	1029	118.001335685028	78
0	1035	119.140050305173	79
0	1053	120.723488836203	80
0	1055	121.916949407317	81
0	1073	122.985380467613	82
0	1091	124.04167413677	83
0	1109	125.153573895226	84
0	1127	126.293205150057	85
0	1145	128.268196459746	86
0	1163	129.890785034865	87
0	1181	131.13770552038	88
0	1199	133.114186503345	89
0	1217	135.034883847812	90
0	1235	136.508720951274	91
0	1253	138.443675577993	92
0	1271	140.256631326283	93
0	1281	142.047611487684	94
0	1299	143.123780709346	95
0	1317	144.73022248282	96
0	1319	145.799618446621	97
0	1337	147.331076768813	98
0	1339	149.313132356274	99
0	1357	151.241189994271	100
0	1375	152.502488156668	101
0	1381	154.100086080263	102
0	1399	155.804970385859	103
0	1401	157.006277597396	104
0	1419	158.128431671419	105
0	1437	159.390423654	106
0	1439	161.340455369212	107
0	1457	162.465951453548	108
0	1463	164.278749168271	109
0	1481	165.407262587108	110
0	1483	166.965341130391	111
0	1501	168.027850263871	112
0	1503	169.560268920732	113
0	1521	171.396717597383	114
0	1539	173.289618490382	115
0	1553	174.507229587181	116
0	1555	175.818197255141	117
0	1573	177.772978895928	118
0	1591	179.035197315623	119
0	1609	180.627086309369	120
0	1627	182.187565817151	121
0	1645	183.729137452438	122
0	1663	185.211235063968	123
0	1665	186.376867649264	124
0	1667	187.933805296083	125
0	1685	189.744252242499	126
0	1703	191.590748608696	127
0	1721	193.404482851854	128
0	1739	194.965809103219	129
0	1741	196.028524683673	130
0	1743	197.141821302824	131
0	1761	199.090658186121	132
0	1763	200.181646159502	133
0	1781	201.185489976198	134
0	1799	202.194809037844	135
0	1817	203.423226778513	136
0	1819	205.074386290625	137
0	1837	206.889474493802	138
0	1855	208.364970929806	139
0	1873	210.234778016691	140
0	1891	211.459859893775	141
0	1909	212.800086458797	142
0	1911	214.142643899309	143
0	1929	215.559692994344	144
0	1931	217.307075060091	145
0	1949	219.043131519926	146
0	1967	220.306056919161	147
0	1985	221.531782786714	148
0	2003	223.238814539628	149
0	2021	224.320161440529	150
0	2039	225.57136141544	151
0	2057	227.02479528182	152
0	2075	228.277724712275	153
0	2081	230.242306114061	154
0	2099	231.608640774273	155
0	2117	233.53975134611	156
0	2135	235.010567363471	157
0	2153	236.962031733364	158
0	2171	238.358753293639	159
1	3	0.126198958082	0
1	3	0.126198958082	1
1	3	0.126198958082	2
1	21	2.100177179763	3
1	21	2.100177179763	4
1	21	2.100177179763	5
1	41	5.8944444731	6
1	41	5.8944444731	7
1	41	5.8944444731	8
1	59	7.67134957679	9
1	59	7.67134957679	10
1	59	7.67134957679	11
1	79	10.141811437476	12
1	79	10.141811437476	13
1	79	10.141811437476	14
1	97	11.167472834001	15
1	97	11.167472834001	16
1	97	11.167472834001	17
1	117	14.686533067499	18
1	117	14.686533067499	19
1	117	14.686533067499	20
1	135	16.655766030821	21
1	135	16.655766030821	22
1	135	16.655766030821	23
1	153	17.784493151332	24
1	153	17.784493151332	25
1	153	17.784493151332	26
1	171	19.446284539834	27
1	171	19.446284539834	28
1	171	19.446284539834	29
1	189	20.793618338214	30
1	189	20.793618338214	31
1	189	20.793618338214	32
1	207	22.73703898095	33
1	207	22.73703898095	34
1	207	22.73703898095	35
1	225	24.441852011213	36
1	225	24.441852011213	37
1	225	24.441852011213	38
1	247	28.687241404431	39
1	247	28.687241404431	40
1	247	28.687241404431	41
1	265	30.200560503258	42
1	265	30.200560503258	43
1	265	30.200560503258	44
1	293	39.420706102032	45
1	293	39.420706102032	46
1	293	39.420706102032	47
1	303	41.197560477229	48
1	303	41.197560477229	49
1	303	41.197560477229	50
1	321	42.490992252947	51
1	321	42.490992252947	52
1	321	42.490992252947	53
1	335	44.245213337686	54
1	335	44.245213337686	55
1	335	44.245213337686	56
1	349	45.270512401381	57
1	349	45.270512401381	58
1	349	45.270512401381	59
1	369	47.94007925361	60
1	369	47.94007925361	61
1	369	47.94007925361	62
1	375	49.304135336812	63
1	375	49.304135336812	64
1	375	49.304135336812	65
1	395	52.926652603364	66
1	395	52.926652603364	67
1	395	52.926652603364	68
1	413	54.340667369778	69
1	413	54.340667369778	70
1	413	54.340667369778	71
1	431	55.507502935739	72
1	431	55.507502935739	73
1	431	55.507502935739	74
1	449	57.20386576459	75
1	449	57.20386576459	76
1	449	57.20386576459	77
1	467	58.736290299922	78
1	467	58.736290299922	79
1	467	58.736290299922	80
1	485	60.319855533257	81
1	485	60.319855533257	82
1	485	60.319855533257	83
1	495	62.127615110628	84
1	495	62.127615110628	85
1	495	62.127615110628	86
1	513	63.148380447946	87
1	513	63.148380447946	88
1	513	63.148380447946	89
1	531	64.355539094057	90
1	531	64.355539094057	91
1	531	64.355539094057	92
1	549	65.362600211827	93
1	549	65.362600211827	94
1	549	65.362600211827	95
1	567	66.525131189187	96
1	567	66.525131189187	97
1	567	66.525131189187	98
1	581	68.048425595563	99
1	581	68.048425595563	100
1	581	68.048425595563	101
1	601	70.151280864831	102
1	601	70.151280864831	103
1	601	70.151280864831	104
1	611	71.435887811356	105
1	611	71.435887811356	106
1	611	71.435887811356	107
1	631	74.379635115103	108
1	631	74.379635115103	109
1	631	74.379635115103	110
1	645	75.859704598917	111
1	645	75.859704598917	112
1	645	75.859704598917	113
1	663	77.462525553897	114
1	663	77.462525553897	115
1	663	77.462525553897	116
1	681	79.458825739783	117
1	681	79.458825739783	118
1	681	79.458825739783	119
1	701	82.189297062115	120
1	701	82.189297062115	121
1	701	82.189297062115	122
1	719	83.745642519386	123
1	719	83.745642519386	124
1	719	83.745642519386	125
1	737	84.801954847517	126
1	737	84.801954847517	127
1	737	84.801954847517	128
1	755	86.451136424244	129
1	755	86.451136424244	130
1	755	86.451136424244	131
1	773	88.275231785894	132
1	773	88.275231785894	133
1	773	88.275231785894	134
1	791	89.898397200892	135
1	791	89.898397200892	136
1	791	89.898397200892	137
1	809	90.989855509238	138
1	809	90.989855509238	139
1	809	90.989855509238	140
1	827	92.123766146097	141
1	827	92.123766146097	142
1	827	92.123766146097	143
1	849	96.79749509961	144
1	849	96.79749509961	145
1	849	96.79749509961	146
1	867	98.373835021209	147
1	867	98.373835021209	148
1	867	98.373835021209	149
1	881	100.055516222312	150
1	881	100.055516222312	151
1	881	100.055516222312	152
1	903	104.467944898548	153
1	903	104.467944898548	154
1	903	104.467944898548	155
1	923	107.804296235565	156
1	923	107.804296235565	157
1	923	107.804296235565	158
1	941	109.674242759866	159
1	941	109.674242759866	160
1	941	109.674242759866	161
1	959	111.448880929968	162
1	959	111.448880929968	163
1	959	111.448880929968	164
1	977	112.591461480979	165
1	977	112.591461480979	166
1	977	112.591461480979	167
1	995	114.488632235219	168
1	995	114.488632235219	169
1	995	114.488632235219	170
1	1013	116.060039662414	171
1	1013	116.060039662414	172
1	1013	116.060039662414	173
1	1031	118.026415262441	174
1	1031	118.026415262441	175
1	1031	118.026415262441	176
1	1037	119.176378409008	177
1	1037	119.176378409008	178
1	1037	119.176378409008	179
1	1057	121.948123416583	180
1	1057	121.948123416583	181
1	1057	121.948123416583	182
1	1075	122.999363666941	183
1	1075	122.999363666941	184
1	1075	122.999363666941	185
1	1093	124.05542855973	186
1	1093	124.05542855973	187
1	1093	124.05542855973	188
1	1111	125.163756257534	189
1	1111	125.163756257534	190
1	1111	125.163756257534	191
1	1129	126.315176350824	192
1	1129	126.315176350824	193
1	1129	126.315176350824	194
1	1147	128.284323215273	195
1	1147	128.284323215273	196
1	1147	128.284323215273	197
1	1165	129.903660117921	198
1	1165	129.903660117921	199
1	1165	129.903660117921	200
1	1183	131.14829715419	201
1	1183	131.14829715419	202
1	1183	131.14829715419	203
1	1201	133.134976452207	204
1	1201	133.134976452207	205
1	1201	133.134976452207	206
1	1219	135.051514757777	207
1	1219	135.051514757777	208
1	1219	135.051514757777	209
1	1237	136.526328303322	210
1	1237	136.526328303322	211
1	1237	136.526328303322	212
1	1255	138.48592140338	213
1	1255	138.48592140338	214
1	1255	138.48592140338	215
1	1273	140.28045922605	216
1	1273	140.28045922605	217
1	1273	140.28045922605	218
1	1283	142.079910769954	219
1	1283	142.079910769954	220
1	1283	142.079910769954	221
1	1301	143.156833892905	222
1	1301	143.156833892905	223
1	1301	143.156833892905	224
1	1321	145.81839154673	225
1	1321	145.81839154673	226
1	1321	145.81839154673	227
1	1341	149.327222154878	228
1	1341	149.327222154878	229
1	1341	149.327222154878	230
1	1359	151.253788777726	231
1	1359	151.253788777726	232
1	1359	151.253788777726	233
1	1377	152.515712049774	234
1	1377	152.515712049774	235
1	1377	152.515712049774	236
1	1383	154.114520774813	237
1	1383	154.114520774813	238
1	1383	154.114520774813	239
1	1403	157.026211243422	240
1	1403	157.026211243422	241
1	1403	157.026211243422	242
1	1421	158.142190592968	243
1	1421	158.142190592968	244
1	1421	158.142190592968	245
1	1441	161.351861952633	246
1	1441	161.351861952633	247
1	1441	161.351861952633	248
1	1459	162.500966579575	249
1	1459	162.500966579575	250
1	1459	162.500966579575	251
1	1465	164.302046937967	252
1	1465	164.302046937967	253
1	1465	164.302046937967	254
1	1485	166.98112360369	255
1	1485	166.98112360369	256
1	1485	166.98112360369	257
1	1505	169.583897091914	258
1	1505	169.583897091914	259
1	1505	169.583897091914	260
1	1523	171.434740868627	261
1	1523	171.434740868627	262
1	1523	171.434740868627	263
1	1541	173.323141053122	264
1	1541	173.323141053122	265
1	1541	173.323141053122	266
1	1557	175.853147414201	267
1	1557	175.853147414201	268
1	1557	175.853147414201	269
1	1575	177.789084952771	270
1	1575	177.789084952771	271
1	1575	177.789084952771	272
1	1593	179.046120735219	273
1	1593	179.046120735219	274
1	1593	179.046120735219	275
1	1611	180.64357278376	276
1	1611	180.64357278376	277
1	1611	180.64357278376	278
1	1629	182.211863483645	279
1	1629	182.211863483645	280
1	1629	182.211863483645	281
1	1647	183.746513163012	282
1	1647	183.746513163012	283
1	1647	183.746513163012	284
1	1669	187.945271116332	285
1	1669	187.945271116332	286
1	1669	187.945271116332	287
1	1687	189.76235007859	288
1	1687	189.76235007859	289
1	1687	189.76235007859	290
1	1705	191.613522099702	291
1	1705	191.613522099702	292
1	1705	191.613522099702	293
1	1723	193.440007439706	294
1	1723	193.440007439706	295
1	1723	193.440007439706	296
1	1745	197.165759961058	297
1	1745	197.165759961058	298
1	1745	197.165759961058	299
1	1765	200.223211670952	300
1	1765	200.223211670952	301
1	1765	200.223211670952	302
1	1783	201.231282592207	303
1	1783	201.231282592207	304
1	1783	201.231282592207	305
1	1801	202.210539446888	306
1	1801	202.210539446888	307
1	1801	202.210539446888	308
1	1821	205.084409285376	309
1	1821	205.084409285376	310
1	1821	205.084409285376	311
1	1839	206.902004635405	312
1	1839	206.902004635405	313
1	1839	206.902004635405	314
1	1857	208.375026190476	315
1	1857	208.375026190476	316
1	1857	208.375026190476	317
1	1875	210.246375947021	318
1	1875	210.246375947021	319
1	1875	210.246375947021	320
1	1893	211.479240008987	321
1	1893	211.479240008987	322
1	1893	211.479240008987	323
1	1913	214.166950092867	324
1	1913	214.166950092867	325
1	1913	214.166950092867	326
1	1933	217.320640464569	327
1	1933	217.320640464569	328
1	1933	217.320640464569	329
1	1951	219.058180841685	330
1	1951	219.058180841685	331
1	1951	219.058180841685	332
1	1969	220.320493882193	333
1	1969	220.320493882193	334
1	1969	220.320493882193	335
1	1987	221.549610149109	336
1	1987	221.549610149109	337
1	1987	221.549610149109	338
1	2005	223.254293621773	339
1	2005	223.254293621773	340
1	2005	223.254293621773	341
1	2023	224.340606664184	342
1	2023	224.340606664184	343
1	2023	224.340606664184	344
1	2041	225.593795687171	345
1	2041	225.593795687171	346
1	2041	225.593795687171	347
1	2059	227.035679540159	348
1	2059	227.035679540159	349
1	2059	227.035679540159	350
1	2077	228.295206712321	351
1	2077	228.295206712321	352
1	2077	228.295206712321	353
1	2083	230.256690573198	354
1	2083	230.256690573198	355
1	2083	230.256690573198	356
1	2101	231.636190250068	357
1	2101	231.636190250068	358
1	2101	231.636190250068	359
1	2119	233.552844394067	360
1	2119	233.552844394067	361
1	2119	233.552844394067	362
1	2137	235.024314639709	363
1	2137	235.024314639709	364
1	2137	235.024314639709	365
1	2155	236.972627232886	366
1	2155	236.972627232886	367
1	2155	236.972627232886	368
1	2173	238.391338589434	369
1	2173	238.391338589434	370
1	2173	238.391338589434	371
2	7	0.205690100955	0
2	7	0.205690100955	1
2	7	0.205690100955	2
2	29	2.131224152726	3
2	29	2.131224152726	4
2	29	2.131224152726	5
2	50	5.940705418016	6
2	50	5.940705418016	7
2	50	5.940705418016	8
2	71	7.713024166015	9
2	71	7.713024166015	10
2	71	7.713024166015	11
2	83	10.155102646607	12
2	83	10.155102646607	13
2	83	10.155102646607	14
2	106	11.190754691635	15
2	106	11.190754691635	16
2	106	11.190754691635	17
2	122	14.701878377833	18
2	122	14.701878377833	19
2	122	14.701878377833	20
2	139	16.68723257409	21
2	139	16.68723257409	22
2	139	16.68723257409	23
2	157	17.807439349607	24
2	157	17.807439349607	25
2	157	17.807439349607	26
2	183	19.549339273103	27
2	183	19.549339273103	28
2	183	19.549339273103	29
2	193	20.812143976618	30
2	193	20.812143976618	31
2	193	20.812143976618	32
2	211	22.747198458276	33
2	211	22.747198458276	34
2	211	22.747198458276	35
2	234	24.465935899856	36
2	234	24.465935899856	37
2	234	24.465935899856	38
2	252	28.705289389368	39
2	252	28.705289389368	40
2	252	28.705289389368	41
2	269	30.213212852621	42
2	269	30.213212852621	43
2	269	30.213212852621	44
2	297	39.441328629013	45
2	297	39.441328629013	46
2	297	39.441328629013	47
2	311	41.221595983887	48
2	311	41.221595983887	49
2	311	41.221595983887	50
2	326	42.518652053118	51
2	326	42.518652053118	52
2	326	42.518652053118	53
2	339	44.25903124937	54
2	339	44.25903124937	55
2	339	44.25903124937	56
2	353	45.283590154794	57
2	353	45.283590154794	58
2	353	45.283590154794	59
2	379	49.317191038283	60
2	379	49.317191038283	61
2	379	49.317191038283	62
2	400	52.966645212056	63
2	400	52.966645212056	64
2	400	52.966645212056	65
2	417	54.375767575878	66
2	417	54.375767575878	67
2	417	54.375767575878	68
2	435	55.535054249329	69
2	435	55.535054249329	70
2	435	55.535054249329	71
2	458	57.234971536398	72
2	458	57.234971536398	73
2	458	57.234971536398	74
2	471	58.746446851713	75
2	471	58.746446851713	76
2	471	58.746446851713	77
2	489	60.338743260161	78
2	489	60.338743260161	79
2	489	60.338743260161	80
2	499	62.137619131667	81
2	499	62.137619131667	82
2	499	62.137619131667	83
2	518	63.16721949021	84
2	518	63.16721949021	85
2	518	63.16721949021	86
2	535	64.370353425043	87
2	535	64.370353425043	88
2	535	64.370353425043	89
2	554	65.378163690867	90
2	554	65.378163690867	91
2	554	65.378163690867	92
2	571	66.542632908291	93
2	571	66.542632908291	94
2	571	66.542632908291	95
2	585	68.059119439874	96
2	585	68.059119439874	97
2	585	68.059119439874	98
2	605	70.172078727874	99
2	605	70.172078727874	100
2	605	70.172078727874	101
2	616	71.454865245957	102
2	616	71.454865245957	103
2	616	71.454865245957	104
2	635	74.396676467001	105
2	635	74.396676467001	106
2	635	74.396676467001	107
2	649	75.876189033136	108
2	649	75.876189033136	109
2	649	75.876189033136	110
2	667	77.495458240137	111
2	667	77.495458240137	112
2	667	77.495458240137	113
2	686	79.488075136655	114
2	686	79.488075136655	115
2	686	79.488075136655	116
2	705	82.202268587183	117
2	705	82.202268587183	118
2	705	82.202268587183	119
2	728	83.778800077454	120
2	728	83.778800077454	121
2	728	83.778800077454	122
2	741	84.812220531542	123
2	741	84.812220531542	124
2	741	84.812220531542	125
2	760	86.466968672113	126
2	760	86.466968672113	127
2	760	86.466968672113	128
2	778	88.292335049709	129
2	778	88.292335049709	130
2	778	88.292335049709	131
2	795	89.915554022337	132
2	795	89.915554022337	133
2	795	89.915554022337	134
2	813	91.006902166302	135
2	813	91.006902166302	136
2	813	91.006902166302	137
2	835	92.152464533673	138
2	835	92.152464533673	139
2	835	92.152464533673	140
2	857	96.821554417971	141
2	857	96.821554417971	142
2	857	96.821554417971	143
2	875	98.407340823171	144
2	875	98.407340823171	145
2	875	98.407340823171	146
2	889	100.106832906028	147
2	889	100.106832906028	148
2	889	100.106832906028	149
2	907	104.490362422498	150
2	907	104.490362422498	151
2	907	104.490362422498	152
2	932	107.831393746011	153
2	932	107.831393746011	154
2	932	107.831393746011	155
2	949	109.70024155223	156
2	949	109.70024155223	157
2	949	109.70024155223	158
2	963	111.467057077362	159
2	963	111.467057077362	160
2	963	111.467057077362	161
2	986	112.626279298475	162
2	986	112.626279298475	163
2	986	112.626279298475	164
2	1004	114.514992919171	165
2	1004	114.514992919171	166
2	1004	114.514992919171	167
2	1021	116.096434403769	168
2	1021	116.096434403769	169
2	1021	116.096434403769	170
2	1041	119.192404973493	171
2	1041	119.192404973493	172
2	1041	119.192404973493	173
2	1061	121.95996244412	174
2	1061	121.95996244412	175
2	1061	121.95996244412	176
2	1080	123.016137818859	177
2	1080	123.016137818859	178
2	1080	123.016137818859	179
2	1102	124.12444399599	180
2	1102	124.12444399599	181
2	1102	124.12444399599	182
2	1116	125.188459539187	183
2	1116	125.188459539187	184
2	1116	125.188459539187	185
2	1137	126.349802561453	186
2	1137	126.349802561453	187
2	1137	126.349802561453	188
2	1151	128.297526917861	189
2	1151	128.297526917861	190
2	1151	128.297526917861	191
2	1169	129.919241689724	192
2	1169	129.919241689724	193
2	1169	129.919241689724	194
2	1187	131.160313351396	195
2	1187	131.160313351396	196
2	1187	131.160313351396	197
2	1213	133.180745441398	198
2	1213	133.180745441398	199
2	1213	133.180745441398	200
2	1227	135.097917570014	201
2	1227	135.097917570014	202
2	1227	135.097917570014	203
2	1245	136.54939644317	204
2	1245	136.54939644317	205
2	1245	136.54939644317	206
2	1259	138.499423821479	207
2	1259	138.499423821479	208
2	1259	138.499423821479	209
2	1287	142.09672525403	210
2	1287	142.09672525403	211
2	1287	142.09672525403	212
2	1305	143.167960921111	213
2	1305	143.167960921111	214
2	1305	143.167960921111	215
2	1326	145.836400812363	216
2	1326	145.836400812363	217
2	1326	145.836400812363	218
2	1346	149.351441243164	219
2	1346	149.351441243164	220
2	1346	149.351441243164	221
2	1364	151.276063111193	222
2	1364	151.276063111193	223
2	1364	151.276063111193	224
2	1387	154.125807830376	225
2	1387	154.125807830376	226
2	1387	154.125807830376	227
2	1415	157.071558217332	228
2	1415	157.071558217332	229
2	1415	157.071558217332	230
2	1426	158.162048491045	231
2	1426	158.162048491045	232
2	1426	158.162048491045	233
2	1445	161.382270448614	234
2	1445	161.382270448614	235
2	1445	161.382270448614	236
2	1469	164.319817900072	237
2	1469	164.319817900072	238
2	1469	164.319817900072	239
2	1493	167.006812658752	240
2	1493	167.006812658752	241
2	1493	167.006812658752	242
2	1513	169.613325415493	243
2	1513	169.613325415493	244
2	1513	169.613325415493	245
2	1528	171.446299402948	246
2	1528	171.446299402948	247
2	1528	171.446299402948	248
2	1545	173.336598390394	249
2	1545	173.336598390394	250
2	1545	173.336598390394	251
2	1569	175.900125545437	252
2	1569	175.900125545437	253
2	1569	175.900125545437	254
2	1579	177.804757828149	255
2	1579	177.804757828149	256
2	1579	177.804757828149	257
2	1601	179.074851630216	258
2	1601	179.074851630216	259
2	1601	179.074851630216	260
2	1616	180.665044100443	261
2	1616	180.665044100443	262
2	1616	180.665044100443	263
2	1633	182.223425317868	264
2	1633	182.223425317868	265
2	1633	182.223425317868	266
2	1656	183.781151199617	267
2	1656	183.781151199617	268
2	1656	183.781151199617	269
2	1674	187.961485692671	270
2	1674	187.961485692671	271
2	1674	187.961485692671	272
2	1692	189.781689928778	273
2	1692	189.781689928778	274
2	1692	189.781689928778	275
2	1709	191.623629456137	276
2	1709	191.623629456137	277
2	1709	191.623629456137	278
2	1731	193.477811899747	279
2	1731	193.477811899747	280
2	1731	193.477811899747	281
2	1749	197.184553228924	282
2	1749	197.184553228924	283
2	1749	197.184553228924	284
2	1769	200.247690520017	285
2	1769	200.247690520017	286
2	1769	200.247690520017	287
2	1787	201.250437807597	288
2	1787	201.250437807597	289
2	1787	201.250437807597	290
2	1813	202.250648603115	291
2	1813	202.250648603115	292
2	1813	202.250648603115	293
2	1830	205.134002360233	294
2	1830	205.134002360233	295
2	1830	205.134002360233	296
2	1843	206.913538726235	297
2	1843	206.913538726235	298
2	1843	206.913538726235	299
2	1862	208.390441378111	300
2	1862	208.390441378111	301
2	1862	208.390441378111	302
2	1879	210.270909638304	303
2	1879	210.270909638304	304
2	1879	210.270909638304	305
2	1898	211.49432594115	306
2	1898	211.49432594115	307
2	1898	211.49432594115	308
2	1918	214.185112555957	309
2	1918	214.185112555957	310
2	1918	214.185112555957	311
2	1937	217.33736538353	312
2	1937	217.33736538353	313
2	1937	217.33736538353	314
2	1955	219.070667105046	315
2	1955	219.070667105046	316
2	1955	219.070667105046	317
2	1973	220.345856248016	318
2	1973	220.345856248016	319
2	1973	220.345856248016	320
2	1991	221.563345496386	321
2	1991	221.563345496386	322
2	1991	221.563345496386	323
2	2009	223.272434582008	324
2	2009	223.272434582008	325
2	2009	223.272434582008	326
2	2027	224.354955256234	327
2	2027	224.354955256234	328
2	2027	224.354955256234	329
2	2045	225.613402266744	330
2	2045	225.613402266744	331
2	2045	225.613402266744	332
2	2063	227.046333926152	333
2	2063	227.046333926152	334
2	2063	227.046333926152	335
2	2087	230.295495452655	336
2	2087	230.295495452655	337
2	2087	230.295495452655	338
2	2105	231.646861392005	339
2	2105	231.646861392005	340
2	2105	231.646861392005	341
2	2124	233.564242886238	342
2	2124	233.564242886238	343
2	2124	233.564242886238	344
2	2146	235.057043453464	345
2	2146	235.057043453464	346
2	2146	235.057043453464	347
2	2163	237.020326457127	348
2	2163	237.020326457127	349
2	2163	237.020326457127	350
2	2181	238.419973669683	351
2	2181	238.419973669683	352
2	2181	238.419973669683	353
3	11	0.21665893968	0
3	11	0.21665893968	1
3	11	0.21665893968	2
3	25	2.112464423829	3
3	25	2.112464423829	4
3	25	2.112464423829	5
3	45	5.908204859324	6
3	45	5.908204859324	7
3	45	5.908204859324	8
3	63	7.686815963711	9
3	63	7.686815963711	10
3	63	7.686815963711	11
3	87	10.165601275087	12
3	87	10.165601275087	13
3	87	10.165601275087	14
3	101	11.177668403552	15
3	101	11.177668403552	16
3	101	11.177668403552	17
3	121	14.697612644469	18
3	121	14.697612644469	19
3	121	14.697612644469	20
3	143	16.698711482093	21
3	143	16.698711482093	22
3	143	16.698711482093	23
3	158	17.808388631922	24
3	158	17.808388631922	25
3	158	17.808388631922	26
3	175	19.489763015877	27
3	175	19.489763015877	28
3	175	19.489763015877	29
3	197	20.826987983365	30
3	197	20.826987983365	31
3	197	20.826987983365	32
3	212	22.756803638605	33
3	212	22.756803638605	34
3	212	22.756803638605	35
3	229	24.452534801479	36
3	229	24.452534801479	37
3	229	24.452534801479	38
3	251	28.704981312953	39
3	251	28.704981312953	40
3	251	28.704981312953	41
3	273	30.226686566177	42
3	273	30.226686566177	43
3	273	30.226686566177	44
3	307	41.209833163219	45
3	307	41.209833163219	46
3	307	41.209833163219	47
3	325	42.510666927804	48
3	325	42.510666927804	49
3	325	42.510666927804	50
3	340	44.263626363246	51
3	340	44.263626363246	52
3	340	44.263626363246	53
3	354	45.291575808944	54
3	354	45.291575808944	55
3	354	45.291575808944	56
3	383	49.340012436903	57
3	383	49.340012436903	58
3	383	49.340012436903	59
3	399	52.966415100578	60
3	399	52.966415100578	61
3	399	52.966415100578	62
3	418	54.376728818898	63
3	418	54.376728818898	64
3	418	54.376728818898	65
3	440	55.547062324292	66
3	440	55.547062324292	67
3	440	55.547062324292	68
3	453	57.222588842279	69
3	453	57.222588842279	70
3	453	57.222588842279	71
3	472	58.755430989649	72
3	472	58.755430989649	73
3	472	58.755430989649	74
3	507	62.16269912913	75
3	507	62.16269912913	76
3	507	62.16269912913	77
3	517	63.161743238379	78
3	517	63.161743238379	79
3	517	63.161743238379	80
3	536	64.371533366428	81
3	536	64.371533366428	82
3	536	64.371533366428	83
3	553	65.374813786903	84
3	553	65.374813786903	85
3	553	65.374813786903	86
3	575	66.554434368733	87
3	575	66.554434368733	88
3	575	66.554434368733	89
3	590	68.073315418563	90
3	590	68.073315418563	91
3	590	68.073315418563	92
3	615	71.448437249396	93
3	615	71.448437249396	94
3	615	71.448437249396	95
3	639	74.425759751205	96
3	639	74.425759751205	97
3	639	74.425759751205	98
3	650	75.876958348769	99
3	650	75.876958348769	100
3	650	75.876958348769	101
3	671	77.50568407539	102
3	671	77.50568407539	103
3	671	77.50568407539	104
3	685	79.486336157406	105
3	685	79.486336157406	106
3	685	79.486336157406	107
3	706	82.202304038097	108
3	706	82.202304038097	109
3	706	82.202304038097	110
3	723	83.757185761051	111
3	723	83.757185761051	112
3	723	83.757185761051	113
3	742	84.816350835998	114
3	742	84.816350835998	115
3	742	84.816350835998	116
3	759	86.463226819028	117
3	759	86.463226819028	118
3	759	86.463226819028	119
3	777	88.285817927571	120
3	777	88.285817927571	121
3	777	88.285817927571	122
3	796	89.922254478573	123
3	796	89.922254478573	124
3	796	89.922254478573	125
3	817	91.017752016633	126
3	817	91.017752016633	127
3	817	91.017752016633	128
3	831	92.137958553413	129
3	831	92.137958553413	130
3	831	92.137958553413	131
3	853	96.807776865614	132
3	853	96.807776865614	133
3	853	96.807776865614	134
3	871	98.388983232426	135
3	871	98.388983232426	136
3	871	98.388983232426	137
3	885	100.073251713005	138
3	885	100.073251713005	139
3	885	100.073251713005	140
3	911	104.523951877165	141
3	911	104.523951877165	142
3	911	104.523951877165	143
3	927	107.817365529807	144
3	927	107.817365529807	145
3	927	107.817365529807	146
3	945	109.68992717182	147
3	945	109.68992717182	148
3	945	109.68992717182	149
3	967	111.478505647713	150
3	967	111.478505647713	151
3	967	111.478505647713	152
3	981	112.608744409105	153
3	981	112.608744409105	154
3	981	112.608744409105	155
3	999	114.501218651041	156
3	999	114.501218651041	157
3	999	114.501218651041	158
3	1017	116.082142137946	159
3	1017	116.082142137946	160
3	1017	116.082142137946	161
3	1049	119.230476547259	162
3	1049	119.230476547259	163
3	1049	119.230476547259	164
3	1069	121.995153213105	165
3	1069	121.995153213105	166
3	1069	121.995153213105	167
3	1079	123.01371785082	168
3	1079	123.01371785082	169
3	1079	123.01371785082	170
3	1097	124.107022803534	171
3	1097	124.107022803534	172
3	1097	124.107022803534	173
3	1115	125.184960205728	174
3	1115	125.184960205728	175
3	1115	125.184960205728	176
3	1133	126.331141034814	177
3	1133	126.331141034814	178
3	1133	126.331141034814	179
3	1152	128.302962560363	180
3	1152	128.302962560363	181
3	1152	128.302962560363	182
3	1170	129.92852344355	183
3	1170	129.92852344355	184
3	1170	129.92852344355	185
3	1192	131.172531644625	186
3	1192	131.172531644625	187
3	1192	131.172531644625	188
3	1205	133.1458160257	189
3	1205	133.1458160257	190
3	1205	133.1458160257	191
3	1223	135.087213681823	192
3	1223	135.087213681823	193
3	1223	135.087213681823	194
3	1241	136.537915347581	195
3	1241	136.537915347581	196
3	1241	136.537915347581	197
3	1260	138.505012749904	198
3	1260	138.505012749904	199
3	1260	138.505012749904	200
3	1277	140.295486095528	201
3	1277	140.295486095528	202
3	1277	140.295486095528	203
3	1288	142.097475845883	204
3	1288	142.097475845883	205
3	1288	142.097475845883	206
3	1310	143.182324465411	207
3	1310	143.182324465411	208
3	1310	143.182324465411	209
3	1325	145.830015930057	210
3	1325	145.830015930057	211
3	1325	145.830015930057	212
3	1345	149.342384230166	213
3	1345	149.342384230166	214
3	1345	149.342384230166	215
3	1363	151.271059722613	216
3	1363	151.271059722613	217
3	1363	151.271059722613	218
3	1388	154.127256143493	219
3	1388	154.127256143493	220
3	1388	154.127256143493	221
3	1407	157.040128914988	222
3	1407	157.040128914988	223
3	1407	157.040128914988	224
3	1425	158.15597053733	225
3	1425	158.15597053733	226
3	1425	158.15597053733	227
3	1450	161.399296377285	228
3	1450	161.399296377285	229
3	1450	161.399296377285	230
3	1470	164.324110896643	231
3	1470	164.324110896643	232
3	1470	164.324110896643	233
3	1489	166.991213396681	234
3	1489	166.991213396681	235
3	1489	166.991213396681	236
3	1509	169.600660880486	237
3	1509	169.600660880486	238
3	1509	169.600660880486	239
3	1527	171.445832987399	240
3	1527	171.445832987399	241
3	1527	171.445832987399	242
3	1561	175.868371707694	243
3	1561	175.868371707694	244
3	1561	175.868371707694	245
3	1583	177.81482834793	246
3	1583	177.81482834793	247
3	1583	177.81482834793	248
3	1597	179.062813508616	249
3	1597	179.062813508616	250
3	1597	179.062813508616	251
3	1615	180.662958943944	252
3	1615	180.662958943944	253
3	1615	180.662958943944	254
3	1634	182.226048270357	255
3	1634	182.226048270357	256
3	1634	182.226048270357	257
3	1651	183.76116407412	258
3	1651	183.76116407412	259
3	1651	183.76116407412	260
3	1673	187.957303954955	261
3	1673	187.957303954955	262
3	1673	187.957303954955	263
3	1691	189.777912478839	264
3	1691	189.777912478839	265
3	1691	189.777912478839	266
3	1717	191.663252271518	267
3	1717	191.663252271518	268
3	1717	191.663252271518	269
3	1727	193.459152107723	270
3	1727	193.459152107723	271
3	1727	193.459152107723	272
3	1754	197.197902697227	273
3	1754	197.197902697227	274
3	1754	197.197902697227	275
3	1774	200.265149028258	276
3	1774	200.265149028258	277
3	1774	200.265149028258	278
3	1791	201.26496932101	279
3	1791	201.26496932101	280
3	1791	201.26496932101	281
3	1805	202.220984550001	282
3	1805	202.220984550001	283
3	1805	202.220984550001	284
3	1825	205.104377766126	285
3	1825	205.104377766126	286
3	1825	205.104377766126	287
3	1844	206.916615469542	288
3	1844	206.916615469542	289
3	1844	206.916615469542	290
3	1861	208.385773555616	291
3	1861	208.385773555616	292
3	1861	208.385773555616	293
3	1883	210.28177832636	294
3	1883	210.28177832636	295
3	1883	210.28177832636	296
3	1897	211.489408577735	297
3	1897	211.489408577735	298
3	1897	211.489408577735	299
3	1917	214.180821821937	300
3	1917	214.180821821937	301
3	1917	214.180821821937	302
3	1941	217.358326760694	303
3	1941	217.358326760694	304
3	1941	217.358326760694	305
3	1956	219.076111937316	306
3	1956	219.076111937316	307
3	1956	219.076111937316	308
3	1977	220.376580981642	309
3	1977	220.376580981642	310
3	1977	220.376580981642	311
3	1999	221.596263132056	312
3	1999	221.596263132056	313
3	1999	221.596263132056	314
3	2013	223.28285817915	315
3	2013	223.28285817915	316
3	2013	223.28285817915	317
3	2031	224.366403122591	318
3	2031	224.366403122591	319
3	2031	224.366403122591	320
3	2050	225.629454711434	321
3	2050	225.629454711434	322
3	2050	225.629454711434	323
3	2064	227.048359274007	324
3	2064	227.048359274007	325
3	2064	227.048359274007	326
3	2088	230.297155310626	327
3	2088	230.297155310626	328
3	2088	230.297155310626	329
3	2109	231.657717283493	330
3	2109	231.657717283493	331
3	2109	231.657717283493	332
3	2123	233.56340072275	333
3	2123	233.56340072275	334
3	2123	233.56340072275	335
3	2141	235.03498063552	336
3	2141	235.03498063552	337
3	2141	235.03498063552	338
3	2159	237.001940325937	339
3	2159	237.001940325937	340
3	2159	237.001940325937	341
3	2177	238.403104144138	342
3	2177	238.403104144138	343
3	2177	238.403104144138	344
4	12	0.217751247295	0
4	12	0.217751247295	1
4	12	0.217751247295	2
4	33	2.147334384836	3
4	33	2.147334384836	4
4	33	2.147334384836	5
4	49	5.939111028554	6
4	49	5.939111028554	7
4	49	5.939111028554	8
4	67	7.699016832158	9
4	67	7.699016832158	10
4	67	7.699016832158	11
4	88	10.166192160738	12
4	88	10.166192160738	13
4	88	10.166192160738	14
4	105	11.190046257154	15
4	105	11.190046257154	16
4	105	11.190046257154	17
4	129	14.714406262706	18
4	129	14.714406262706	19
4	129	14.714406262706	20
4	144	16.698732391914	21
4	144	16.698732391914	22
4	144	16.698732391914	23
4	165	17.82721229684	24
4	165	17.82721229684	25
4	165	17.82721229684	26
4	179	19.50948358021	27
4	179	19.50948358021	28
4	179	19.50948358021	29
4	198	20.831744963951	30
4	198	20.831744963951	31
4	198	20.831744963951	32
4	219	22.768939262906	33
4	219	22.768939262906	34
4	219	22.768939262906	35
4	233	24.464873918536	36
4	233	24.464873918536	37
4	233	24.464873918536	38
4	259	28.718243031432	39
4	259	28.718243031432	40
4	259	28.718243031432	41
4	274	30.228120805811	42
4	274	30.228120805811	43
4	274	30.228120805811	44
4	315	41.236234353038	45
4	315	41.236234353038	46
4	315	41.236234353038	47
4	358	45.29821184601	48
4	358	45.29821184601	49
4	358	45.29821184601	50
4	384	49.340473782394	51
4	384	49.340473782394	52
4	384	49.340473782394	53
4	407	52.978690511613	54
4	407	52.978690511613	55
4	407	52.978690511613	56
4	425	54.418807157669	57
4	425	54.418807157669	58
4	425	54.418807157669	59
4	439	55.546992478904	60
4	439	55.546992478904	61
4	439	55.546992478904	62
4	457	57.232830581703	63
4	457	57.232830581703	64
4	457	57.232830581703	65
4	476	58.762132747222	66
4	476	58.762132747222	67
4	476	58.762132747222	68
4	503	62.152344485049	69
4	503	62.152344485049	70
4	503	62.152344485049	71
4	522	63.172519869297	72
4	522	63.172519869297	73
4	522	63.172519869297	74
4	543	64.385351593741	75
4	543	64.385351593741	76
4	543	64.385351593741	77
4	558	65.387296686516	78
4	558	65.387296686516	79
4	558	65.387296686516	80
4	589	68.069825910953	81
4	589	68.069825910953	82
4	589	68.069825910953	83
4	620	71.459937110276	84
4	620	71.459937110276	85
4	620	71.459937110276	86
4	657	75.895912519029	87
4	657	75.895912519029	88
4	657	75.895912519029	89
4	672	77.509379225474	90
4	672	77.509379225474	91
4	672	77.509379225474	92
4	693	79.512315182047	93
4	693	79.512315182047	94
4	693	79.512315182047	95
4	713	82.216504330054	96
4	713	82.216504330054	97
4	713	82.216504330054	98
4	727	83.772485070923	99
4	727	83.772485070923	100
4	727	83.772485070923	101
4	749	84.835910467897	102
4	749	84.835910467897	103
4	749	84.835910467897	104
4	764	86.476372300462	105
4	764	86.476372300462	106
4	764	86.476372300462	107
4	785	88.308727046538	108
4	785	88.308727046538	109
4	785	88.308727046538	110
4	803	89.957602350545	111
4	803	89.957602350545	112
4	803	89.957602350545	113
4	818	91.022499153748	114
4	818	91.022499153748	115
4	818	91.022499153748	116
4	839	92.164983321538	117
4	839	92.164983321538	118
4	839	92.164983321538	119
4	858	96.822672978545	120
4	858	96.822672978545	121
4	858	96.822672978545	122
4	890	100.113450689099	123
4	890	100.113450689099	124
4	890	100.113450689099	125
4	912	104.524363652136	126
4	912	104.524363652136	127
4	912	104.524363652136	128
4	931	107.830672577863	129
4	931	107.830672577863	130
4	931	107.830672577863	131
4	953	109.727877393112	132
4	953	109.727877393112	133
4	953	109.727877393112	134
4	968	111.483087464235	135
4	968	111.483087464235	136
4	968	111.483087464235	137
4	985	112.62051103986	138
4	985	112.62051103986	139
4	985	112.62051103986	140
4	1003	114.513797421063	141
4	1003	114.513797421063	142
4	1003	114.513797421063	143
4	1022	116.100680441492	144
4	1022	116.100680441492	145
4	1022	116.100680441492	146
4	1045	119.206032059242	147
4	1045	119.206032059242	148
4	1045	119.206032059242	149
4	1065	121.984550014046	150
4	1065	121.984550014046	151
4	1065	121.984550014046	152
4	1087	123.032519420946	153
4	1087	123.032519420946	154
4	1087	123.032519420946	155
4	1101	124.121158401725	156
4	1101	124.121158401725	157
4	1101	124.121158401725	158
4	1123	125.225379906335	159
4	1123	125.225379906335	160
4	1123	125.225379906335	161
4	1138	126.357627970807	162
4	1138	126.357627970807	163
4	1138	126.357627970807	164
4	1159	128.31866609963	165
4	1159	128.31866609963	166
4	1159	128.31866609963	167
4	1174	129.933604049892	168
4	1174	129.933604049892	169
4	1174	129.933604049892	170
4	1191	131.171850906231	171
4	1191	131.171850906231	172
4	1191	131.171850906231	173
4	1209	133.158143239163	174
4	1209	133.158143239163	175
4	1209	133.158143239163	176
4	1231	135.122738331557	177
4	1231	135.122738331557	178
4	1231	135.122738331557	179
4	1249	136.58275074042	180
4	1249	136.58275074042	181
4	1249	136.58275074042	182
4	1267	138.538484281046	183
4	1267	138.538484281046	184
4	1267	138.538484281046	185
4	1295	142.10903769246	186
4	1295	142.10903769246	187
4	1295	142.10903769246	188
4	1309	143.179910870295	189
4	1309	143.179910870295	190
4	1309	143.179910870295	191
4	1333	145.847947626402	192
4	1333	145.847947626402	193
4	1333	145.847947626402	194
4	1353	149.366028442393	195
4	1353	149.366028442393	196
4	1353	149.366028442393	197
4	1371	151.295366081342	198
4	1371	151.295366081342	199
4	1371	151.295366081342	200
4	1395	154.139404578076	201
4	1395	154.139404578076	202
4	1395	154.139404578076	203
4	1411	157.056000891306	204
4	1411	157.056000891306	205
4	1411	157.056000891306	206
4	1433	158.173967604605	207
4	1433	158.173967604605	208
4	1433	158.173967604605	209
4	1449	161.399163108336	210
4	1449	161.399163108336	211
4	1449	161.399163108336	212
4	1477	164.339608520325	213
4	1477	164.339608520325	214
4	1477	164.339608520325	215
4	1497	167.036441822074	216
4	1497	167.036441822074	217
4	1497	167.036441822074	218
4	1514	169.62004580386	219
4	1514	169.62004580386	220
4	1514	169.62004580386	221
4	1535	171.456324900781	222
4	1535	171.456324900781	223
4	1535	171.456324900781	224
4	1549	173.357140855969	225
4	1549	173.357140855969	226
4	1549	173.357140855969	227
4	1565	175.879953752192	228
4	1565	175.879953752192	229
4	1565	175.879953752192	230
4	1584	177.818766738116	231
4	1584	177.818766738116	232
4	1584	177.818766738116	233
4	1605	179.094740635154	234
4	1605	179.094740635154	235
4	1605	179.094740635154	236
4	1620	180.673439044588	237
4	1620	180.673439044588	238
4	1620	180.673439044588	239
4	1641	182.247711743619	240
4	1641	182.247711743619	241
4	1641	182.247711743619	242
4	1655	183.771757910397	243
4	1655	183.771757910397	244
4	1655	183.771757910397	245
4	1678	187.97144745967	246
4	1678	187.97144745967	247
4	1678	187.97144745967	248
4	1699	189.793803800875	249
4	1699	189.793803800875	250
4	1699	189.793803800875	251
4	1713	191.643988243738	252
4	1713	191.643988243738	253
4	1713	191.643988243738	254
4	1732	193.483059993829	255
4	1732	193.483059993829	256
4	1732	193.483059993829	257
4	1753	197.195183017566	258
4	1753	197.195183017566	259
4	1753	197.195183017566	260
4	1773	200.257979565942	261
4	1773	200.257979565942	262
4	1773	200.257979565942	263
4	1795	201.275328174256	264
4	1795	201.275328174256	265
4	1795	201.275328174256	266
4	1809	202.231654917836	267
4	1809	202.231654917836	268
4	1809	202.231654917836	269
4	1829	205.124737787453	270
4	1829	205.124737787453	271
4	1829	205.124737787453	272
4	1851	206.932573475433	273
4	1851	206.932573475433	274
4	1851	206.932573475433	275
4	1869	208.406208279967	276
4	1869	208.406208279967	277
4	1869	208.406208279967	278
4	1884	210.286004879837	279
4	1884	210.286004879837	280
4	1884	210.286004879837	281
4	1905	211.528278965515	282
4	1905	211.528278965515	283
4	1905	211.528278965515	284
4	1922	214.19324368025	285
4	1922	214.19324368025	286
4	1922	214.19324368025	287
4	1945	217.3699281605	288
4	1945	217.3699281605	289
4	1945	217.3699281605	290
4	1960	219.082207866763	291
4	1960	219.082207866763	292
4	1960	219.082207866763	293
4	1981	220.403321135539	294
4	1981	220.403321135539	295
4	1981	220.403321135539	296
4	1995	221.577290261492	297
4	1995	221.577290261492	298
4	1995	221.577290261492	299
4	2014	223.286318137133	300
4	2014	223.286318137133	301
4	2014	223.286318137133	302
4	2035	224.380492791923	303
4	2035	224.380492791923	304
4	2035	224.380492791923	305
4	2049	225.623557500636	306
4	2049	225.623557500636	307
4	2049	225.623557500636	308
4	2071	227.076272375014	309
4	2071	227.076272375014	310
4	2071	227.076272375014	311
4	2095	230.341796801536	312
4	2095	230.341796801536	313
4	2095	230.341796801536	314
4	2113	231.668947235912	315
4	2113	231.668947235912	316
4	2113	231.668947235912	317
4	2131	233.581968439838	318
4	2131	233.581968439838	319
4	2131	233.581968439838	320
4	2145	235.048552986042	321
4	2145	235.048552986042	322
4	2145	235.048552986042	323
4	2167	237.03346092221	324
4	2167	237.03346092221	325
4	2167	237.03346092221	326
4	2185	238.433071190607	327
4	2185	238.433071190607	328
4	2185	238.433071190607	329
5	18	0.227751247295	0
5	53	5.949111028554	1
5	94	10.176192160738	2
5	109	11.200046257154	3
5	132	14.724406262706	4
5	168	17.83721229684	5
5	204	20.841744963951	6
5	237	24.474873918536	7
5	262	28.728243031432	8
5	280	30.238120805811	9
5	318	41.246234353038	10
5	364	45.30821184601	11
5	390	49.350473782394	12
5	410	52.988690511613	13
5	443	55.556992478904	14
5	461	57.242830581703	15
5	482	58.772132747222	16
5	528	63.182519869297	17
5	546	64.395351593741	18
5	564	65.397296686516	19
5	593	68.079825910953	20
5	678	77.519379225474	21
5	696	79.522315182047	22
5	716	82.226504330054	23
5	731	83.782485070923	24
5	752	84.845910467897	25
5	770	86.486372300462	26
5	788	88.318727046538	27
5	806	89.967602350545	28
5	824	91.032499153748	29
5	864	96.832672978545	30
5	935	107.840672577863	31
5	1007	114.523797421063	32
5	1028	116.110680441492	33
5	1048	119.216032059242	34
5	1105	124.131158401725	35
5	1144	126.367627970807	36
5	1180	129.943604049892	37
5	1195	131.181850906231	38
5	1212	133.168143239163	39
5	1234	135.132738331557	40
5	1252	136.59275074042	41
5	1298	142.11903769246	42
5	1313	143.189910870295	43
5	1336	145.857947626402	44
5	1356	149.376028442393	45
5	1374	151.305366081342	46
5	1398	154.149404578076	47
5	1414	157.066000891306	48
5	1436	158.183967604605	49
5	1453	161.409163108336	50
5	1480	164.349608520325	51
5	1500	167.046441822074	52
5	1538	171.466324900781	53
5	1552	173.367140855969	54
5	1568	175.889953752192	55
5	1590	177.828766738116	56
5	1608	179.104740635154	57
5	1626	180.683439044588	58
5	1644	182.257711743619	59
5	1659	183.781757910397	60
5	1684	187.98144745967	61
5	1702	189.803803800875	62
5	1716	191.653988243738	63
5	1738	193.493059993829	64
5	1757	197.205183017566	65
5	1798	201.285328174256	66
5	1812	202.241654917836	67
5	1833	205.134737787453	68
5	1854	206.942573475433	69
5	1890	210.296004879837	70
5	1948	217.3799281605	71
5	1966	219.092207866763	72
5	1984	220.413321135539	73
5	2020	223.296318137133	74
5	2038	224.390492791923	75
5	2053	225.633557500636	76
5	2098	230.351796801536	77
5	2116	231.678947235912	78
5	2134	233.591968439838	79
5	2149	235.058552986042	80
5	2170	237.04346092221	81
5	2188	238.443071190607	82

