version 2
run General-3-20230921-21:32:46-5507
attr configname General
attr datetime 20230921-21:32:46
attr experiment General
attr inifile omnetpp.ini
attr iterationvars ""
attr iterationvarsf ""
attr measurement ""
attr network Network1
attr processid 5507
attr repetition 3
attr replication #3
attr resultdir results
attr runnumber 3
attr seedset 3
param Network1.node[*].transmissionTime "uniform(1s, 2s)"
param Network1.node[*].delayTime "uniform(0.01s, 0.2s)"
param Network1.node[*].processingTime exponential(0.01s)
param Network1.node[*].lossProbability 0.2

vector 0 Network1.node[0] txVector ETV
vector 1 Network1.node[1] txVector ETV
vector 2 Network1.node[3] txVector ETV
vector 3 Network1.node[2] txVector ETV
vector 4 Network1.node[4] txVector ETV
vector 5 Network1.node[5] rxVector ETV
0	1	0.114651601831	0
0	15	1.185376482154	1
0	17	2.433264783886	2
0	35	3.526816279464	3
0	53	5.500464550522	4
0	71	6.758049842273	5
0	89	8.171768525918	6
0	107	9.825399378384	7
0	125	11.518033125507	8
0	143	13.058152726921	9
0	161	14.084178993548	10
0	179	15.83631902358	11
0	197	17.407603768469	12
0	199	18.952986385278	13
0	201	20.781008502306	14
0	219	22.014700511541	15
0	237	23.283507840313	16
0	239	24.551455595136	17
0	257	25.808661973175	18
0	259	27.300477521332	19
0	261	28.430135905348	20
0	279	30.290189368256	21
0	297	31.986939356035	22
0	299	33.392838340091	23
0	317	34.931302031806	24
0	335	36.090949190153	25
0	353	38.019448036632	26
0	371	39.813210308157	27
0	373	40.952386821458	28
0	375	41.974482635805	29
0	393	43.196858955385	30
0	395	45.097629760463	31
0	413	46.458713535523	32
0	431	48.075418822305	33
0	437	49.106348018698	34
0	439	50.380985488254	35
0	457	52.322899851785	36
0	475	54.066729263007	37
0	477	55.598192393384	38
0	495	56.776731227362	39
0	513	57.847100986704	40
0	531	59.691376618646	41
0	549	60.882659909852	42
0	567	62.791017930094	43
0	585	64.687426916627	44
0	603	66.584490524443	45
0	621	68.567295295024	46
0	623	70.017134220177	47
0	629	71.429565286567	48
0	631	73.15200748907	49
0	649	74.780032974273	50
0	667	76.450499081356	51
0	685	77.943350403174	52
0	703	79.481955728331	53
0	705	80.810192081216	54
0	723	81.896435698797	55
0	725	82.979227724322	56
0	743	84.199901377852	57
0	745	85.237038331875	58
0	763	87.235385410558	59
0	765	88.52336007061	60
0	783	89.550997678261	61
0	801	90.672594983667	62
0	819	92.338778769668	63
0	837	93.655461561937	64
0	855	95.354390952341	65
0	857	96.448869041471	66
0	859	98.398106066348	67
0	877	99.667336836994	68
0	895	101.213252287662	69
0	913	102.661905862229	70
0	931	104.293395819213	71
0	949	106.231634243695	72
0	967	108.192498462113	73
0	985	109.294975229144	74
0	1003	111.139788702434	75
0	1021	112.68157786464	76
0	1039	114.358851120879	77
0	1041	115.796885956849	78
0	1059	117.293953485859	79
0	1077	118.575202469088	80
0	1095	120.474893037069	81
0	1113	121.578739232921	82
0	1131	122.897571342836	83
0	1149	124.240368983314	84
0	1167	126.063358001948	85
0	1169	127.479876054522	86
0	1171	128.695568240552	87
0	1189	130.153296179675	88
0	1191	131.603666270921	89
0	1209	133.438349185349	90
0	1227	135.047403520509	91
0	1245	136.74453253632	92
0	1263	137.889486509911	93
0	1265	139.511388743133	94
0	1267	141.117322503891	95
0	1285	142.270433447858	96
0	1303	143.498416198486	97
0	1321	145.097528324997	98
0	1339	146.212826968705	99
0	1341	148.009711586473	100
0	1359	149.832750774523	101
0	1373	151.426178444013	102
0	1391	152.805194533266	103
0	1393	154.142451184638	104
0	1411	156.072314428933	105
0	1417	157.155894529376	106
0	1419	158.645130089087	107
0	1437	160.187330277938	108
0	1439	161.486335372854	109
0	1457	162.952503291959	110
0	1463	164.920561956311	111
0	1465	166.083568648504	112
0	1483	167.979847067337	113
0	1497	169.465234485989	114
0	1515	170.974410591948	115
0	1533	172.321012715179	116
0	1551	174.076604903744	117
0	1569	175.19063193614	118
0	1571	176.931820207111	119
0	1589	178.517194294439	120
0	1607	180.327413160655	121
0	1625	181.719064441578	122
0	1643	183.222631017047	123
0	1661	184.662904022097	124
0	1679	186.358104362919	125
0	1697	187.382396716925	126
0	1711	189.222273437607	127
0	1729	190.986963516868	128
0	1747	192.249843794222	129
0	1749	193.959706927718	130
0	1767	195.141428555663	131
0	1785	196.700614068027	132
0	1803	198.015550060266	133
0	1821	199.739575048511	134
0	1839	201.569615549942	135
0	1857	203.136267914505	136
0	1875	204.593874192865	137
0	1893	206.014629312859	138
0	1911	207.453641357434	139
0	1925	209.060811827027	140
0	1943	210.450776072287	141
0	1961	211.936705332783	142
0	1979	213.087890255799	143
0	1997	214.832888669403	144
0	1999	216.681555394152	145
0	2017	217.815090706175	146
0	2035	219.806856621591	147
0	2053	221.057379103334	148
0	2071	222.536920722642	149
0	2073	223.826762780615	150
0	2091	225.193952974931	151
0	2093	226.293278014821	152
0	2111	228.188605817103	153
0	2129	229.323584231151	154
0	2147	230.415758846396	155
0	2165	232.150991826387	156
0	2183	233.227731685456	157
0	2201	235.136418639286	158
0	2203	236.336132430774	159
0	2221	238.105436168448	160
0	2239	239.199037417374	161
1	3	0.14297423212	0
1	3	0.14297423212	1
1	3	0.14297423212	2
1	19	2.455133438848	3
1	19	2.455133438848	4
1	19	2.455133438848	5
1	37	3.541963957342	6
1	37	3.541963957342	7
1	37	3.541963957342	8
1	55	5.532819901525	9
1	55	5.532819901525	10
1	55	5.532819901525	11
1	73	6.783520977891	12
1	73	6.783520977891	13
1	73	6.783520977891	14
1	91	8.192635944121	15
1	91	8.192635944121	16
1	91	8.192635944121	17
1	109	9.841303487368	18
1	109	9.841303487368	19
1	109	9.841303487368	20
1	127	11.545527488628	21
1	127	11.545527488628	22
1	127	11.545527488628	23
1	145	13.075196305942	24
1	145	13.075196305942	25
1	145	13.075196305942	26
1	163	14.095414426129	27
1	163	14.095414426129	28
1	163	14.095414426129	29
1	181	15.867614651664	30
1	181	15.867614651664	31
1	181	15.867614651664	32
1	203	20.793275973271	33
1	203	20.793275973271	34
1	203	20.793275973271	35
1	221	22.046495174929	36
1	221	22.046495174929	37
1	221	22.046495174929	38
1	241	24.564694099073	39
1	241	24.564694099073	40
1	241	24.564694099073	41
1	263	28.442600000286	42
1	263	28.442600000286	43
1	263	28.442600000286	44
1	281	30.313988822625	45
1	281	30.313988822625	46
1	281	30.313988822625	47
1	301	33.413324376151	48
1	301	33.413324376151	49
1	301	33.413324376151	50
1	319	34.958424608594	51
1	319	34.958424608594	52
1	319	34.958424608594	53
1	337	36.105460243941	54
1	337	36.105460243941	55
1	337	36.105460243941	56
1	355	38.034243387669	57
1	355	38.034243387669	58
1	355	38.034243387669	59
1	377	41.988894787056	60
1	377	41.988894787056	61
1	377	41.988894787056	62
1	397	45.129176987772	63
1	397	45.129176987772	64
1	397	45.129176987772	65
1	415	46.507382719812	66
1	415	46.507382719812	67
1	415	46.507382719812	68
1	433	48.088059758958	69
1	433	48.088059758958	70
1	433	48.088059758958	71
1	441	50.394225739327	72
1	441	50.394225739327	73
1	441	50.394225739327	74
1	459	52.337448742852	75
1	459	52.337448742852	76
1	459	52.337448742852	77
1	479	55.622851558252	78
1	479	55.622851558252	79
1	479	55.622851558252	80
1	497	56.804988738771	81
1	497	56.804988738771	82
1	497	56.804988738771	83
1	515	57.862314413805	84
1	515	57.862314413805	85
1	515	57.862314413805	86
1	533	59.709732519716	87
1	533	59.709732519716	88
1	533	59.709732519716	89
1	551	60.905244752373	90
1	551	60.905244752373	91
1	551	60.905244752373	92
1	569	62.814608752793	93
1	569	62.814608752793	94
1	569	62.814608752793	95
1	587	64.705374907264	96
1	587	64.705374907264	97
1	587	64.705374907264	98
1	605	66.604085527044	99
1	605	66.604085527044	100
1	605	66.604085527044	101
1	625	70.061165276796	102
1	625	70.061165276796	103
1	625	70.061165276796	104
1	633	73.167259944061	105
1	633	73.167259944061	106
1	633	73.167259944061	107
1	651	74.812778865484	108
1	651	74.812778865484	109
1	651	74.812778865484	110
1	669	76.470677619999	111
1	669	76.470677619999	112
1	669	76.470677619999	113
1	687	77.966009862344	114
1	687	77.966009862344	115
1	687	77.966009862344	116
1	707	80.824387913211	117
1	707	80.824387913211	118
1	707	80.824387913211	119
1	727	83.008273400444	120
1	727	83.008273400444	121
1	727	83.008273400444	122
1	747	85.257134937091	123
1	747	85.257134937091	124
1	747	85.257134937091	125
1	767	88.534446896575	126
1	767	88.534446896575	127
1	767	88.534446896575	128
1	785	89.573447516441	129
1	785	89.573447516441	130
1	785	89.573447516441	131
1	803	90.683524703966	132
1	803	90.683524703966	133
1	803	90.683524703966	134
1	821	92.349544164516	135
1	821	92.349544164516	136
1	821	92.349544164516	137
1	839	93.679807430417	138
1	839	93.679807430417	139
1	839	93.679807430417	140
1	861	98.411874856386	141
1	861	98.411874856386	142
1	861	98.411874856386	143
1	879	99.684295563427	144
1	879	99.684295563427	145
1	879	99.684295563427	146
1	897	101.243350589298	147
1	897	101.243350589298	148
1	897	101.243350589298	149
1	915	102.683351121426	150
1	915	102.683351121426	151
1	915	102.683351121426	152
1	933	104.306928219662	153
1	933	104.306928219662	154
1	933	104.306928219662	155
1	951	106.258173997256	156
1	951	106.258173997256	157
1	951	106.258173997256	158
1	969	108.215096181635	159
1	969	108.215096181635	160
1	969	108.215096181635	161
1	987	109.311757764294	162
1	987	109.311757764294	163
1	987	109.311757764294	164
1	1005	111.171816545251	165
1	1005	111.171816545251	166
1	1005	111.171816545251	167
1	1023	112.697349884903	168
1	1023	112.697349884903	169
1	1023	112.697349884903	170
1	1043	115.834930117213	171
1	1043	115.834930117213	172
1	1043	115.834930117213	173
1	1061	117.3065246351	174
1	1061	117.3065246351	175
1	1061	117.3065246351	176
1	1079	118.590423402593	177
1	1079	118.590423402593	178
1	1079	118.590423402593	179
1	1097	120.509944118509	180
1	1097	120.509944118509	181
1	1097	120.509944118509	182
1	1115	121.590217311285	183
1	1115	121.590217311285	184
1	1115	121.590217311285	185
1	1133	122.909333705977	186
1	1133	122.909333705977	187
1	1133	122.909333705977	188
1	1151	124.265546522594	189
1	1151	124.265546522594	190
1	1151	124.265546522594	191
1	1173	128.734656597802	192
1	1173	128.734656597802	193
1	1173	128.734656597802	194
1	1193	131.641289400256	195
1	1193	131.641289400256	196
1	1193	131.641289400256	197
1	1211	133.460864562265	198
1	1211	133.460864562265	199
1	1211	133.460864562265	200
1	1229	135.068681258665	201
1	1229	135.068681258665	202
1	1229	135.068681258665	203
1	1247	136.757144708707	204
1	1247	136.757144708707	205
1	1247	136.757144708707	206
1	1269	141.132199479014	207
1	1269	141.132199479014	208
1	1269	141.132199479014	209
1	1287	142.318942879553	210
1	1287	142.318942879553	211
1	1287	142.318942879553	212
1	1305	143.541635844085	213
1	1305	143.541635844085	214
1	1305	143.541635844085	215
1	1323	145.118001743341	216
1	1323	145.118001743341	217
1	1323	145.118001743341	218
1	1343	148.024042571136	219
1	1343	148.024042571136	220
1	1343	148.024042571136	221
1	1361	149.846607757655	222
1	1361	149.846607757655	223
1	1361	149.846607757655	224
1	1375	151.442148395762	225
1	1375	151.442148395762	226
1	1375	151.442148395762	227
1	1395	154.171054869778	228
1	1395	154.171054869778	229
1	1395	154.171054869778	230
1	1413	156.087814796925	231
1	1413	156.087814796925	232
1	1413	156.087814796925	233
1	1421	158.659645124606	234
1	1421	158.659645124606	235
1	1421	158.659645124606	236
1	1441	161.499359998718	237
1	1441	161.499359998718	238
1	1441	161.499359998718	239
1	1459	162.964033852146	240
1	1459	162.964033852146	241
1	1459	162.964033852146	242
1	1467	166.096606387252	243
1	1467	166.096606387252	244
1	1467	166.096606387252	245
1	1485	167.992752992596	246
1	1485	167.992752992596	247
1	1485	167.992752992596	248
1	1499	169.484525170243	249
1	1499	169.484525170243	250
1	1499	169.484525170243	251
1	1517	171.036164773678	252
1	1517	171.036164773678	253
1	1517	171.036164773678	254
1	1535	172.3374236656	255
1	1535	172.3374236656	256
1	1535	172.3374236656	257
1	1553	174.087193359346	258
1	1553	174.087193359346	259
1	1553	174.087193359346	260
1	1573	176.945970802247	261
1	1573	176.945970802247	262
1	1573	176.945970802247	263
1	1591	178.541337319668	264
1	1591	178.541337319668	265
1	1591	178.541337319668	266
1	1609	180.339716210977	267
1	1609	180.339716210977	268
1	1609	180.339716210977	269
1	1627	181.751781367158	270
1	1627	181.751781367158	271
1	1627	181.751781367158	272
1	1645	183.238810591879	273
1	1645	183.238810591879	274
1	1645	183.238810591879	275
1	1663	184.695855807508	276
1	1663	184.695855807508	277
1	1663	184.695855807508	278
1	1681	186.378405443624	279
1	1681	186.378405443624	280
1	1681	186.378405443624	281
1	1699	187.40155293987	282
1	1699	187.40155293987	283
1	1699	187.40155293987	284
1	1713	189.245723070884	285
1	1713	189.245723070884	286
1	1713	189.245723070884	287
1	1731	191.008323847881	288
1	1731	191.008323847881	289
1	1731	191.008323847881	290
1	1751	193.975786125067	291
1	1751	193.975786125067	292
1	1751	193.975786125067	293
1	1769	195.160701312414	294
1	1769	195.160701312414	295
1	1769	195.160701312414	296
1	1787	196.727467091512	297
1	1787	196.727467091512	298
1	1787	196.727467091512	299
1	1805	198.027930799446	300
1	1805	198.027930799446	301
1	1805	198.027930799446	302
1	1823	199.762966803276	303
1	1823	199.762966803276	304
1	1823	199.762966803276	305
1	1841	201.583100454135	306
1	1841	201.583100454135	307
1	1841	201.583100454135	308
1	1859	203.167649641804	309
1	1859	203.167649641804	310
1	1859	203.167649641804	311
1	1877	204.604117224732	312
1	1877	204.604117224732	313
1	1877	204.604117224732	314
1	1895	206.054154960319	315
1	1895	206.054154960319	316
1	1895	206.054154960319	317
1	1913	207.47004588182	318
1	1913	207.47004588182	319
1	1913	207.47004588182	320
1	1927	209.10258625543	321
1	1927	209.10258625543	322
1	1927	209.10258625543	323
1	1945	210.469219500379	324
1	1945	210.469219500379	325
1	1945	210.469219500379	326
1	1963	211.949118916208	327
1	1963	211.949118916208	328
1	1963	211.949118916208	329
1	1981	213.100544303262	330
1	1981	213.100544303262	331
1	1981	213.100544303262	332
1	2001	216.703974974846	333
1	2001	216.703974974846	334
1	2001	216.703974974846	335
1	2019	217.829612082768	336
1	2019	217.829612082768	337
1	2019	217.829612082768	338
1	2037	219.824016044836	339
1	2037	219.824016044836	340
1	2037	219.824016044836	341
1	2055	221.074676694981	342
1	2055	221.074676694981	343
1	2055	221.074676694981	344
1	2075	223.837004000076	345
1	2075	223.837004000076	346
1	2075	223.837004000076	347
1	2095	226.31857684788	348
1	2095	226.31857684788	349
1	2095	226.31857684788	350
1	2113	228.199190140047	351
1	2113	228.199190140047	352
1	2113	228.199190140047	353
1	2131	229.335356051305	354
1	2131	229.335356051305	355
1	2131	229.335356051305	356
1	2149	230.440998277094	357
1	2149	230.440998277094	358
1	2149	230.440998277094	359
1	2167	232.179481666231	360
1	2167	232.179481666231	361
1	2167	232.179481666231	362
1	2185	233.247601458021	363
1	2185	233.247601458021	364
1	2185	233.247601458021	365
1	2205	236.35375401566	366
1	2205	236.35375401566	367
1	2205	236.35375401566	368
1	2223	238.125066439824	369
1	2223	238.125066439824	370
1	2223	238.125066439824	371
2	7	0.161397929952	0
2	7	0.161397929952	1
2	7	0.161397929952	2
2	23	2.47116965401	3
2	23	2.47116965401	4
2	23	2.47116965401	5
2	42	3.563777526158	6
2	42	3.563777526158	7
2	42	3.563777526158	8
2	63	5.584303712521	9
2	63	5.584303712521	10
2	63	5.584303712521	11
2	82	6.814337135599	12
2	82	6.814337135599	13
2	82	6.814337135599	14
2	95	8.20589293402	15
2	95	8.20589293402	16
2	95	8.20589293402	17
2	114	9.865037119566	18
2	114	9.865037119566	19
2	114	9.865037119566	20
2	139	11.607032554347	21
2	139	11.607032554347	22
2	139	11.607032554347	23
2	149	13.085889478997	24
2	149	13.085889478997	25
2	149	13.085889478997	26
2	167	14.116369336007	27
2	167	14.116369336007	28
2	167	14.116369336007	29
2	185	15.891269860903	30
2	185	15.891269860903	31
2	185	15.891269860903	32
2	207	20.822312145209	33
2	207	20.822312145209	34
2	207	20.822312145209	35
2	225	22.058445758816	36
2	225	22.058445758816	37
2	225	22.058445758816	38
2	245	24.581213734916	39
2	245	24.581213734916	40
2	245	24.581213734916	41
2	267	28.454463700177	42
2	267	28.454463700177	43
2	267	28.454463700177	44
2	285	30.325708975053	45
2	285	30.325708975053	46
2	285	30.325708975053	47
2	305	33.424993664971	48
2	305	33.424993664971	49
2	305	33.424993664971	50
2	327	35.015397516079	51
2	327	35.015397516079	52
2	327	35.015397516079	53
2	341	36.119238543854	54
2	341	36.119238543854	55
2	341	36.119238543854	56
2	363	38.061070043133	57
2	363	38.061070043133	58
2	363	38.061070043133	59
2	381	42.000593924706	60
2	381	42.000593924706	61
2	381	42.000593924706	62
2	402	45.139972792292	63
2	402	45.139972792292	64
2	402	45.139972792292	65
2	420	46.527025367421	66
2	420	46.527025367421	67
2	420	46.527025367421	68
2	445	50.407432643915	69
2	445	50.407432643915	70
2	445	50.407432643915	71
2	464	52.350032731896	72
2	464	52.350032731896	73
2	464	52.350032731896	74
2	483	55.63353295365	75
2	483	55.63353295365	76
2	483	55.63353295365	77
2	505	56.870484820735	78
2	505	56.870484820735	79
2	505	56.870484820735	80
2	519	57.88358442616	81
2	519	57.88358442616	82
2	519	57.88358442616	83
2	537	59.720276817801	84
2	537	59.720276817801	85
2	537	59.720276817801	86
2	559	60.935159977734	87
2	559	60.935159977734	88
2	559	60.935159977734	89
2	573	62.844457711855	90
2	573	62.844457711855	91
2	573	62.844457711855	92
2	592	64.724766086316	93
2	592	64.724766086316	94
2	592	64.724766086316	95
2	609	66.621920173455	96
2	609	66.621920173455	97
2	609	66.621920173455	98
2	637	73.181782768908	99
2	637	73.181782768908	100
2	637	73.181782768908	101
2	663	74.850519965431	102
2	663	74.850519965431	103
2	663	74.850519965431	104
2	678	76.504235897367	105
2	678	76.504235897367	106
2	678	76.504235897367	107
2	691	77.981446673175	108
2	691	77.981446673175	109
2	691	77.981446673175	110
2	711	80.834911013647	111
2	711	80.834911013647	112
2	711	80.834911013647	113
2	731	83.020543757337	114
2	731	83.020543757337	115
2	731	83.020543757337	116
2	751	85.270587076991	117
2	751	85.270587076991	118
2	751	85.270587076991	119
2	776	88.582799900278	120
2	776	88.582799900278	121
2	776	88.582799900278	122
2	790	89.590192865098	123
2	790	89.590192865098	124
2	790	89.590192865098	125
2	815	90.737292756051	126
2	815	90.737292756051	127
2	815	90.737292756051	128
2	829	92.375127375123	129
2	829	92.375127375123	130
2	829	92.375127375123	131
2	847	93.721806535113	132
2	847	93.721806535113	133
2	847	93.721806535113	134
2	869	98.454822496591	135
2	869	98.454822496591	136
2	869	98.454822496591	137
2	887	99.706259858229	138
2	887	99.706259858229	139
2	887	99.706259858229	140
2	905	101.270094651467	141
2	905	101.270094651467	142
2	905	101.270094651467	143
2	927	102.749437230933	144
2	927	102.749437230933	145
2	927	102.749437230933	146
2	942	104.343559928944	147
2	942	104.343559928944	148
2	942	104.343559928944	149
2	956	106.277204848971	150
2	956	106.277204848971	151
2	956	106.277204848971	152
2	973	108.226893130849	153
2	973	108.226893130849	154
2	973	108.226893130849	155
2	992	109.329713266595	156
2	992	109.329713266595	157
2	992	109.329713266595	158
2	1010	111.194785867858	159
2	1010	111.194785867858	160
2	1010	111.194785867858	161
2	1028	112.71486114693	162
2	1028	112.71486114693	163
2	1028	112.71486114693	164
2	1048	115.859310307249	165
2	1048	115.859310307249	166
2	1048	115.859310307249	167
2	1065	117.320028525041	168
2	1065	117.320028525041	169
2	1065	117.320028525041	170
2	1083	118.60480495313	171
2	1083	118.60480495313	172
2	1083	118.60480495313	173
2	1101	120.52130717086	174
2	1101	120.52130717086	175
2	1101	120.52130717086	176
2	1119	121.606414759123	177
2	1119	121.606414759123	178
2	1119	121.606414759123	179
2	1137	122.922151119033	180
2	1137	122.922151119033	181
2	1137	122.922151119033	182
2	1155	124.291802425045	183
2	1155	124.291802425045	184
2	1155	124.291802425045	185
2	1177	128.750534880635	186
2	1177	128.750534880635	187
2	1177	128.750534880635	188
2	1197	131.651744369967	189
2	1197	131.651744369967	190
2	1197	131.651744369967	191
2	1215	133.475121164961	192
2	1215	133.475121164961	193
2	1215	133.475121164961	194
2	1237	135.103135652362	195
2	1237	135.103135652362	196
2	1237	135.103135652362	197
2	1251	136.774852053171	198
2	1251	136.774852053171	199
2	1251	136.774852053171	200
2	1277	141.157091488318	201
2	1277	141.157091488318	202
2	1277	141.157091488318	203
2	1291	142.336537370138	204
2	1291	142.336537370138	205
2	1291	142.336537370138	206
2	1317	143.598821958681	207
2	1317	143.598821958681	208
2	1317	143.598821958681	209
2	1331	145.139742280391	210
2	1331	145.139742280391	211
2	1331	145.139742280391	212
2	1347	148.042300110822	213
2	1347	148.042300110822	214
2	1347	148.042300110822	215
2	1365	149.860001798082	216
2	1365	149.860001798082	217
2	1365	149.860001798082	218
2	1379	151.456135503624	219
2	1379	151.456135503624	220
2	1379	151.456135503624	221
2	1399	154.183116421392	222
2	1399	154.183116421392	223
2	1399	154.183116421392	224
2	1433	158.70629339657	225
2	1433	158.70629339657	226
2	1433	158.70629339657	227
2	1445	161.511959556882	228
2	1445	161.511959556882	229
2	1445	161.511959556882	230
2	1471	166.110104333223	231
2	1471	166.110104333223	232
2	1471	166.110104333223	233
2	1489	168.003252755708	234
2	1489	168.003252755708	235
2	1489	168.003252755708	236
2	1503	169.498811297794	237
2	1503	169.498811297794	238
2	1503	169.498811297794	239
2	1526	171.071905210093	240
2	1526	171.071905210093	241
2	1526	171.071905210093	242
2	1539	172.35430054394	243
2	1539	172.35430054394	244
2	1539	172.35430054394	245
2	1561	174.116481561585	246
2	1561	174.116481561585	247
2	1561	174.116481561585	248
2	1577	176.957667486049	249
2	1577	176.957667486049	250
2	1577	176.957667486049	251
2	1595	178.560182744691	252
2	1595	178.560182744691	253
2	1595	178.560182744691	254
2	1613	180.358259777805	255
2	1613	180.358259777805	256
2	1613	180.358259777805	257
2	1631	181.765198964386	258
2	1631	181.765198964386	259
2	1631	181.765198964386	260
2	1649	183.252211294977	261
2	1649	183.252211294977	262
2	1649	183.252211294977	263
2	1671	184.71838488728	264
2	1671	184.71838488728	265
2	1671	184.71838488728	266
2	1689	186.413837883931	267
2	1689	186.413837883931	268
2	1689	186.413837883931	269
2	1703	187.411782539482	270
2	1703	187.411782539482	271
2	1703	187.411782539482	272
2	1722	189.299311356131	273
2	1722	189.299311356131	274
2	1722	189.299311356131	275
2	1739	191.035973585705	276
2	1739	191.035973585705	277
2	1739	191.035973585705	278
2	1755	193.993780725384	279
2	1755	193.993780725384	280
2	1755	193.993780725384	281
2	1777	195.193786700342	282
2	1777	195.193786700342	283
2	1777	195.193786700342	284
2	1791	196.740305909962	285
2	1791	196.740305909962	286
2	1791	196.740305909962	287
2	1809	198.057456119535	288
2	1809	198.057456119535	289
2	1809	198.057456119535	290
2	1827	199.776931401665	291
2	1827	199.776931401665	292
2	1827	199.776931401665	293
2	1845	201.598462170799	294
2	1845	201.598462170799	295
2	1845	201.598462170799	296
2	1867	203.204616182186	297
2	1867	203.204616182186	298
2	1867	203.204616182186	299
2	1889	204.661618039021	300
2	1889	204.661618039021	301
2	1889	204.661618039021	302
2	1904	206.089016044245	303
2	1904	206.089016044245	304
2	1904	206.089016044245	305
2	1917	207.506424263724	306
2	1917	207.506424263724	307
2	1917	207.506424263724	308
2	1939	209.180812640917	309
2	1939	209.180812640917	310
2	1939	209.180812640917	311
2	1954	210.504010304571	312
2	1954	210.504010304571	313
2	1954	210.504010304571	314
2	1972	211.978820808678	315
2	1972	211.978820808678	316
2	1972	211.978820808678	317
2	1993	213.176290117668	318
2	1993	213.176290117668	319
2	1993	213.176290117668	320
2	2005	216.724651667476	321
2	2005	216.724651667476	322
2	2005	216.724651667476	323
2	2023	217.852998213428	324
2	2023	217.852998213428	325
2	2023	217.852998213428	326
2	2042	219.847730800924	327
2	2042	219.847730800924	328
2	2042	219.847730800924	329
2	2060	221.0935400102	330
2	2060	221.0935400102	331
2	2060	221.0935400102	332
2	2079	223.85769692932	333
2	2079	223.85769692932	334
2	2079	223.85769692932	335
2	2107	226.369904761068	336
2	2107	226.369904761068	337
2	2107	226.369904761068	338
2	2125	228.235187158413	339
2	2125	228.235187158413	340
2	2125	228.235187158413	341
2	2143	229.389253223897	342
2	2143	229.389253223897	343
2	2143	229.389253223897	344
2	2153	230.45949054386	345
2	2153	230.45949054386	346
2	2153	230.45949054386	347
2	2171	232.196666547521	348
2	2171	232.196666547521	349
2	2171	232.196666547521	350
2	2193	233.269679719134	351
2	2193	233.269679719134	352
2	2193	233.269679719134	353
2	2213	236.393529603481	354
2	2213	236.393529603481	355
2	2213	236.393529603481	356
2	2227	238.136392959866	357
2	2227	238.136392959866	358
2	2227	238.136392959866	359
3	11	0.194059795375	0
3	11	0.194059795375	1
3	11	0.194059795375	2
3	27	2.484433706775	3
3	27	2.484433706775	4
3	27	2.484433706775	5
3	41	3.555298077787	6
3	41	3.555298077787	7
3	41	3.555298077787	8
3	59	5.570368749653	9
3	59	5.570368749653	10
3	59	5.570368749653	11
3	77	6.798008328279	12
3	77	6.798008328279	13
3	77	6.798008328279	14
3	96	8.205969545013	15
3	96	8.205969545013	16
3	96	8.205969545013	17
3	113	9.863602775836	18
3	113	9.863602775836	19
3	113	9.863602775836	20
3	131	11.56141797417	21
3	131	11.56141797417	22
3	131	11.56141797417	23
3	150	13.0942761536	24
3	150	13.0942761536	25
3	150	13.0942761536	26
3	171	14.134156815316	27
3	171	14.134156815316	28
3	171	14.134156815316	29
3	186	15.896072787139	30
3	186	15.896072787139	31
3	186	15.896072787139	32
3	212	20.839066671652	33
3	212	20.839066671652	34
3	212	20.839066671652	35
3	226	22.058953998336	36
3	226	22.058953998336	37
3	226	22.058953998336	38
3	246	24.585224450892	39
3	246	24.585224450892	40
3	246	24.585224450892	41
3	271	28.470768461204	42
3	271	28.470768461204	43
3	271	28.470768461204	44
3	289	30.33750127681	45
3	289	30.33750127681	46
3	289	30.33750127681	47
3	309	33.4442973389	48
3	309	33.4442973389	49
3	309	33.4442973389	50
3	323	35.002014079506	51
3	323	35.002014079506	52
3	323	35.002014079506	53
3	345	36.134319004687	54
3	345	36.134319004687	55
3	345	36.134319004687	56
3	359	38.046867901833	57
3	359	38.046867901833	58
3	359	38.046867901833	59
3	382	42.006167709862	60
3	382	42.006167709862	61
3	382	42.006167709862	62
3	401	45.139887114612	63
3	401	45.139887114612	64
3	401	45.139887114612	65
3	419	46.522047801319	66
3	419	46.522047801319	67
3	419	46.522047801319	68
3	449	50.426064015465	69
3	449	50.426064015465	70
3	449	50.426064015465	71
3	463	52.348889966142	72
3	463	52.348889966142	73
3	463	52.348889966142	74
3	488	55.648933213612	75
3	488	55.648933213612	76
3	488	55.648933213612	77
3	501	56.850470261605	78
3	501	56.850470261605	79
3	501	56.850470261605	80
3	520	57.892484994004	81
3	520	57.892484994004	82
3	520	57.892484994004	83
3	541	59.733179409051	84
3	541	59.733179409051	85
3	541	59.733179409051	86
3	555	60.921728242857	87
3	555	60.921728242857	88
3	555	60.921728242857	89
3	574	62.849843640528	90
3	574	62.849843640528	91
3	574	62.849843640528	92
3	591	64.716132030043	93
3	591	64.716132030043	94
3	591	64.716132030043	95
3	610	66.624602112912	96
3	610	66.624602112912	97
3	610	66.624602112912	98
3	645	73.20915327608	99
3	645	73.20915327608	100
3	645	73.20915327608	101
3	655	74.825931344237	102
3	655	74.825931344237	103
3	655	74.825931344237	104
3	673	76.481079190575	105
3	673	76.481079190575	106
3	673	76.481079190575	107
3	692	77.984071516989	108
3	692	77.984071516989	109
3	692	77.984071516989	110
3	715	80.844978180908	111
3	715	80.844978180908	112
3	715	80.844978180908	113
3	732	83.027931552943	114
3	732	83.027931552943	115
3	732	83.027931552943	116
3	752	85.279105066146	117
3	752	85.279105066146	118
3	752	85.279105066146	119
3	771	88.549256734121	120
3	771	88.549256734121	121
3	771	88.549256734121	122
3	789	89.587967328429	123
3	789	89.587967328429	124
3	789	89.587967328429	125
3	807	90.706617064903	126
3	807	90.706617064903	127
3	807	90.706617064903	128
3	825	92.363184201657	129
3	825	92.363184201657	130
3	825	92.363184201657	131
3	843	93.700787976705	132
3	843	93.700787976705	133
3	843	93.700787976705	134
3	865	98.441076096818	135
3	865	98.441076096818	136
3	865	98.441076096818	137
3	883	99.695825739959	138
3	883	99.695825739959	139
3	883	99.695825739959	140
3	901	101.258953429189	141
3	901	101.258953429189	142
3	901	101.258953429189	143
3	919	102.694480176475	144
3	919	102.694480176475	145
3	919	102.694480176475	146
3	937	104.323662859007	147
3	937	104.323662859007	148
3	937	104.323662859007	149
3	955	106.272444483755	150
3	955	106.272444483755	151
3	955	106.272444483755	152
3	974	108.227793916473	153
3	974	108.227793916473	154
3	974	108.227793916473	155
3	991	109.329276015263	156
3	991	109.329276015263	157
3	991	109.329276015263	158
3	1009	111.186005208016	159
3	1009	111.186005208016	160
3	1009	111.186005208016	161
3	1027	112.709063054891	162
3	1027	112.709063054891	163
3	1027	112.709063054891	164
3	1047	115.856761512749	165
3	1047	115.856761512749	166
3	1047	115.856761512749	167
3	1066	117.322916664399	168
3	1066	117.322916664399	169
3	1066	117.322916664399	170
3	1091	118.638702252001	171
3	1091	118.638702252001	172
3	1091	118.638702252001	173
3	1109	120.558761163236	174
3	1109	120.558761163236	175
3	1109	120.558761163236	176
3	1120	121.611094828505	177
3	1120	121.611094828505	178
3	1120	121.611094828505	179
3	1142	122.940124425397	180
3	1142	122.940124425397	181
3	1142	122.940124425397	182
3	1156	124.296474587032	183
3	1156	124.296474587032	184
3	1156	124.296474587032	185
3	1178	128.756265729212	186
3	1178	128.756265729212	187
3	1178	128.756265729212	188
3	1198	131.658314166354	189
3	1198	131.658314166354	190
3	1198	131.658314166354	191
3	1216	133.483364830801	192
3	1216	133.483364830801	193
3	1216	133.483364830801	194
3	1233	135.082108983503	195
3	1233	135.082108983503	196
3	1233	135.082108983503	197
3	1255	136.789247211342	198
3	1255	136.789247211342	199
3	1255	136.789247211342	200
3	1273	141.143449043676	201
3	1273	141.143449043676	202
3	1273	141.143449043676	203
3	1299	142.366815342726	204
3	1299	142.366815342726	205
3	1299	142.366815342726	206
3	1309	143.558900510881	207
3	1309	143.558900510881	208
3	1309	143.558900510881	209
3	1327	145.128047029457	210
3	1327	145.128047029457	211
3	1327	145.128047029457	212
3	1351	148.053188404654	213
3	1351	148.053188404654	214
3	1351	148.053188404654	215
3	1369	149.880992319042	216
3	1369	149.880992319042	217
3	1369	149.880992319042	218
3	1383	151.468975162819	219
3	1383	151.468975162819	220
3	1383	151.468975162819	221
3	1400	154.186035365712	222
3	1400	154.186035365712	223
3	1400	154.186035365712	224
3	1425	158.673477493422	225
3	1425	158.673477493422	226
3	1425	158.673477493422	227
3	1449	161.522773168278	228
3	1449	161.522773168278	229
3	1449	161.522773168278	230
3	1472	166.115427008374	231
3	1472	166.115427008374	232
3	1472	166.115427008374	233
3	1493	168.016874394087	234
3	1493	168.016874394087	235
3	1493	168.016874394087	236
3	1508	169.521213667171	237
3	1508	169.521213667171	238
3	1508	169.521213667171	239
3	1521	171.047674734177	240
3	1521	171.047674734177	241
3	1521	171.047674734177	242
3	1543	172.371381772515	243
3	1543	172.371381772515	244
3	1543	172.371381772515	245
3	1557	174.098992854925	246
3	1557	174.098992854925	247
3	1557	174.098992854925	248
3	1582	176.972816505153	249
3	1582	176.972816505153	250
3	1582	176.972816505153	251
3	1599	178.60580543764	252
3	1599	178.60580543764	253
3	1599	178.60580543764	254
3	1614	180.362377122944	255
3	1614	180.362377122944	256
3	1614	180.362377122944	257
3	1639	181.827119877121	258
3	1639	181.827119877121	259
3	1639	181.827119877121	260
3	1653	183.262955096368	261
3	1653	183.262955096368	262
3	1653	183.262955096368	263
3	1667	184.707759922646	264
3	1667	184.707759922646	265
3	1667	184.707759922646	266
3	1685	186.395607840937	267
3	1685	186.395607840937	268
3	1685	186.395607840937	269
3	1704	187.417225518728	270
3	1704	187.417225518728	271
3	1704	187.417225518728	272
3	1717	189.288750235664	273
3	1717	189.288750235664	274
3	1717	189.288750235664	275
3	1735	191.025162407239	276
3	1735	191.025162407239	277
3	1735	191.025162407239	278
3	1759	194.007166989343	279
3	1759	194.007166989343	280
3	1759	194.007166989343	281
3	1773	195.17936814707	282
3	1773	195.17936814707	283
3	1773	195.17936814707	284
3	1792	196.748322824443	285
3	1792	196.748322824443	286
3	1792	196.748322824443	287
3	1817	198.100108645227	288
3	1817	198.100108645227	289
3	1817	198.100108645227	290
3	1828	199.777411543097	291
3	1828	199.777411543097	292
3	1828	199.777411543097	293
3	1849	201.622886459042	294
3	1849	201.622886459042	295
3	1849	201.622886459042	296
3	1863	203.184966050497	297
3	1863	203.184966050497	298
3	1863	203.184966050497	299
3	1881	204.624815778903	300
3	1881	204.624815778903	301
3	1881	204.624815778903	302
3	1899	206.067420652685	303
3	1899	206.067420652685	304
3	1899	206.067420652685	305
3	1921	207.529710049524	306
3	1921	207.529710049524	307
3	1921	207.529710049524	308
3	1931	209.134516114327	309
3	1931	209.134516114327	310
3	1931	209.134516114327	311
3	1949	210.481351871511	312
3	1949	210.481351871511	313
3	1949	210.481351871511	314
3	1967	211.965747318359	315
3	1967	211.965747318359	316
3	1967	211.965747318359	317
3	1985	213.146307784943	318
3	1985	213.146307784943	319
3	1985	213.146307784943	320
3	2009	216.745306364369	321
3	2009	216.745306364369	322
3	2009	216.745306364369	323
3	2024	217.854079392887	324
3	2024	217.854079392887	325
3	2024	217.854079392887	326
3	2041	219.844395164215	327
3	2041	219.844395164215	328
3	2041	219.844395164215	329
3	2059	221.089387135135	330
3	2059	221.089387135135	331
3	2059	221.089387135135	332
3	2083	223.871726807589	333
3	2083	223.871726807589	334
3	2083	223.871726807589	335
3	2099	226.333056192202	336
3	2099	226.333056192202	337
3	2099	226.333056192202	338
3	2117	228.210514667374	339
3	2117	228.210514667374	340
3	2117	228.210514667374	341
3	2135	229.356967171273	342
3	2135	229.356967171273	343
3	2135	229.356967171273	344
3	2154	230.463337429644	345
3	2154	230.463337429644	346
3	2154	230.463337429644	347
3	2176	232.214709935165	348
3	2176	232.214709935165	349
3	2176	232.214709935165	350
3	2189	233.259021782875	351
3	2189	233.259021782875	352
3	2189	233.259021782875	353
3	2209	236.373663549783	354
3	2209	236.373663549783	355
3	2209	236.373663549783	356
3	2228	238.136571334348	357
3	2228	238.136571334348	358
3	2228	238.136571334348	359
4	28	2.492447642128	0
4	28	2.492447642128	1
4	28	2.492447642128	2
4	46	3.568512812124	3
4	46	3.568512812124	4
4	46	3.568512812124	5
4	67	5.599395165486	6
4	67	5.599395165486	7
4	67	5.599395165486	8
4	81	6.813225844521	9
4	81	6.813225844521	10
4	81	6.813225844521	11
4	103	8.218218229322	12
4	103	8.218218229322	13
4	103	8.218218229322	14
4	121	9.890124259026	15
4	121	9.890124259026	16
4	121	9.890124259026	17
4	135	11.57419760765	18
4	135	11.57419760765	19
4	135	11.57419760765	20
4	154	13.09810812301	21
4	154	13.09810812301	22
4	154	13.09810812301	23
4	172	14.138651328522	24
4	172	14.138651328522	25
4	172	14.138651328522	26
4	193	15.925801064642	27
4	193	15.925801064642	28
4	193	15.925801064642	29
4	211	20.83325295411	30
4	211	20.83325295411	31
4	211	20.83325295411	32
4	233	22.09073847246	33
4	233	22.09073847246	34
4	233	22.09073847246	35
4	253	24.626562794524	36
4	253	24.626562794524	37
4	253	24.626562794524	38
4	275	28.503360875631	39
4	275	28.503360875631	40
4	275	28.503360875631	41
4	293	30.354123911768	42
4	293	30.354123911768	43
4	293	30.354123911768	44
4	310	33.451036393504	45
4	310	33.451036393504	46
4	310	33.451036393504	47
4	328	35.018601479819	48
4	328	35.018601479819	49
4	328	35.018601479819	50
4	346	36.134874041842	51
4	346	36.134874041842	52
4	346	36.134874041842	53
4	364	38.070772022404	54
4	364	38.070772022404	55
4	364	38.070772022404	56
4	389	42.017580569389	57
4	389	42.017580569389	58
4	389	42.017580569389	59
4	409	45.155338982177	60
4	409	45.155338982177	61
4	409	45.155338982177	62
4	427	46.545978637684	63
4	427	46.545978637684	64
4	427	46.545978637684	65
4	450	50.429299376115	66
4	450	50.429299376115	67
4	450	50.429299376115	68
4	471	52.373187879764	69
4	471	52.373187879764	70
4	471	52.373187879764	71
4	487	55.643575709329	72
4	487	55.643575709329	73
4	487	55.643575709329	74
4	506	56.873776715991	75
4	506	56.873776715991	76
4	506	56.873776715991	77
4	527	57.904718749267	78
4	527	57.904718749267	79
4	527	57.904718749267	80
4	545	59.753712188111	81
4	545	59.753712188111	82
4	545	59.753712188111	83
4	560	60.937133566648	84
4	560	60.937133566648	85
4	560	60.937133566648	86
4	581	62.86106455116	87
4	581	62.86106455116	88
4	581	62.86106455116	89
4	596	64.726576838651	90
4	596	64.726576838651	91
4	596	64.726576838651	92
4	617	66.652211813113	93
4	617	66.652211813113	94
4	617	66.652211813113	95
4	641	73.19845193488	96
4	641	73.19845193488	97
4	641	73.19845193488	98
4	659	74.838673394003	99
4	659	74.838673394003	100
4	659	74.838673394003	101
4	677	76.499598774153	102
4	677	76.499598774153	103
4	677	76.499598774153	104
4	699	78.020561929709	105
4	699	78.020561929709	106
4	699	78.020561929709	107
4	716	80.849894582377	108
4	716	80.849894582377	109
4	716	80.849894582377	110
4	736	83.034774247342	111
4	736	83.034774247342	112
4	736	83.034774247342	113
4	759	85.294673682283	114
4	759	85.294673682283	115
4	759	85.294673682283	116
4	775	88.581222244589	117
4	775	88.581222244589	118
4	775	88.581222244589	119
4	797	89.612382014222	120
4	797	89.612382014222	121
4	797	89.612382014222	122
4	811	90.722704248968	123
4	811	90.722704248968	124
4	811	90.722704248968	125
4	833	92.393206315429	126
4	833	92.393206315429	127
4	833	92.393206315429	128
4	851	93.753763621545	129
4	851	93.753763621545	130
4	851	93.753763621545	131
4	870	98.459204418998	132
4	870	98.459204418998	133
4	870	98.459204418998	134
4	891	99.716650151435	135
4	891	99.716650151435	136
4	891	99.716650151435	137
4	909	101.282602858922	138
4	909	101.282602858922	139
4	909	101.282602858922	140
4	923	102.724100859847	141
4	923	102.724100859847	142
4	923	102.724100859847	143
4	941	104.338438722122	144
4	941	104.338438722122	145
4	941	104.338438722122	146
4	963	106.308603687822	147
4	963	106.308603687822	148
4	963	106.308603687822	149
4	981	108.242437505758	150
4	981	108.242437505758	151
4	981	108.242437505758	152
4	999	109.344473932755	153
4	999	109.344473932755	154
4	999	109.344473932755	155
4	1017	111.214265697013	156
4	1017	111.214265697013	157
4	1017	111.214265697013	158
4	1032	112.720710561294	159
4	1032	112.720710561294	160
4	1032	112.720710561294	161
4	1055	115.879996874698	162
4	1055	115.879996874698	163
4	1055	115.879996874698	164
4	1073	117.33502971396	165
4	1073	117.33502971396	166
4	1073	117.33502971396	167
4	1087	118.617949995367	168
4	1087	118.617949995367	169
4	1087	118.617949995367	170
4	1105	120.536025081186	171
4	1105	120.536025081186	172
4	1105	120.536025081186	173
4	1127	121.622073686846	174
4	1127	121.622073686846	175
4	1127	121.622073686846	176
4	1141	122.938513658643	177
4	1141	122.938513658643	178
4	1141	122.938513658643	179
4	1160	124.303254904435	180
4	1160	124.303254904435	181
4	1160	124.303254904435	182
4	1182	128.761513300231	183
4	1182	128.761513300231	184
4	1182	128.761513300231	185
4	1202	131.664460169001	186
4	1202	131.664460169001	187
4	1202	131.664460169001	188
4	1220	133.491746474695	189
4	1220	133.491746474695	190
4	1220	133.491746474695	191
4	1238	135.104665059713	192
4	1238	135.104665059713	193
4	1238	135.104665059713	194
4	1259	136.810666158504	195
4	1259	136.810666158504	196
4	1259	136.810666158504	197
4	1278	141.158002248812	198
4	1278	141.158002248812	199
4	1278	141.158002248812	200
4	1295	142.347669959866	201
4	1295	142.347669959866	202
4	1295	142.347669959866	203
4	1313	143.576796165839	204
4	1313	143.576796165839	205
4	1313	143.576796165839	206
4	1332	145.145153244639	207
4	1332	145.145153244639	208
4	1332	145.145153244639	209
4	1355	148.065955253518	210
4	1355	148.065955253518	211
4	1355	148.065955253518	212
4	1384	151.469584714991	213
4	1384	151.469584714991	214
4	1384	151.469584714991	215
4	1407	154.203737769741	216
4	1407	154.203737769741	217
4	1407	154.203737769741	218
4	1429	158.687188439862	219
4	1429	158.687188439862	220
4	1429	158.687188439862	221
4	1453	161.536699974745	222
4	1453	161.536699974745	223
4	1453	161.536699974745	224
4	1476	166.122376023117	225
4	1476	166.122376023117	226
4	1476	166.122376023117	227
4	1507	169.516527218968	228
4	1507	169.516527218968	229
4	1507	169.516527218968	230
4	1525	171.0707182414	231
4	1525	171.0707182414	232
4	1525	171.0707182414	233
4	1544	172.377491545603	234
4	1544	172.377491545603	235
4	1544	172.377491545603	236
4	1565	174.126510087802	237
4	1565	174.126510087802	238
4	1565	174.126510087802	239
4	1581	176.968755658807	240
4	1581	176.968755658807	241
4	1581	176.968755658807	242
4	1603	178.617962456933	243
4	1603	178.617962456933	244
4	1603	178.617962456933	245
4	1621	180.373071653257	246
4	1621	180.373071653257	247
4	1621	180.373071653257	248
4	1635	181.796636506829	249
4	1635	181.796636506829	250
4	1635	181.796636506829	251
4	1654	183.265310995741	252
4	1654	183.265310995741	253
4	1654	183.265310995741	254
4	1672	184.72586543892	255
4	1672	184.72586543892	256
4	1672	184.72586543892	257
4	1693	186.430797802109	258
4	1693	186.430797802109	259
4	1693	186.430797802109	260
4	1721	189.298848465111	261
4	1721	189.298848465111	262
4	1721	189.298848465111	263
4	1740	191.04302194352	264
4	1740	191.04302194352	265
4	1740	191.04302194352	266
4	1763	194.064771086033	267
4	1763	194.064771086033	268
4	1763	194.064771086033	269
4	1778	195.195082039448	270
4	1778	195.195082039448	271
4	1778	195.195082039448	272
4	1799	196.776038881369	273
4	1799	196.776038881369	274
4	1799	196.776038881369	275
4	1813	198.087795262172	276
4	1813	198.087795262172	277
4	1813	198.087795262172	278
4	1835	199.798427078143	279
4	1835	199.798427078143	280
4	1835	199.798427078143	281
4	1853	201.644359815621	282
4	1853	201.644359815621	283
4	1853	201.644359815621	284
4	1871	203.224448444583	285
4	1871	203.224448444583	286
4	1871	203.224448444583	287
4	1885	204.648585025283	288
4	1885	204.648585025283	289
4	1885	204.648585025283	290
4	1903	206.080849106095	291
4	1903	206.080849106095	292
4	1903	206.080849106095	293
4	1935	209.147724814311	294
4	1935	209.147724814311	295
4	1935	209.147724814311	296
4	1953	210.502923875974	297
4	1953	210.502923875974	298
4	1953	210.502923875974	299
4	1971	211.976982975969	300
4	1971	211.976982975969	301
4	1971	211.976982975969	302
4	1989	213.157613162125	303
4	1989	213.157613162125	304
4	1989	213.157613162125	305
4	2013	216.760085082933	306
4	2013	216.760085082933	307
4	2013	216.760085082933	308
4	2031	217.867193446901	309
4	2031	217.867193446901	310
4	2031	217.867193446901	311
4	2049	219.863852647768	312
4	2049	219.863852647768	313
4	2049	219.863852647768	314
4	2067	221.117840407303	315
4	2067	221.117840407303	316
4	2067	221.117840407303	317
4	2087	223.891739901805	318
4	2087	223.891739901805	319
4	2087	223.891739901805	320
4	2103	226.354214388578	321
4	2103	226.354214388578	322
4	2103	226.354214388578	323
4	2121	228.222068422673	324
4	2121	228.222068422673	325
4	2121	228.222068422673	326
4	2139	229.373437602824	327
4	2139	229.373437602824	328
4	2139	229.373437602824	329
4	2158	230.472045700949	330
4	2158	230.472045700949	331
4	2158	230.472045700949	332
4	2175	232.209980119768	333
4	2175	232.209980119768	334
4	2175	232.209980119768	335
4	2197	233.284370396412	336
4	2197	233.284370396412	337
4	2197	233.284370396412	338
4	2217	236.408174563885	339
4	2217	236.408174563885	340
4	2217	236.408174563885	341
4	2235	238.190151368597	342
4	2235	238.190151368597	343
4	2235	238.190151368597	344
5	34	2.502447642128	0
5	52	3.578512812124	1
5	85	6.823225844521	2
5	124	9.900124259026	3
5	178	14.148651328522	4
5	196	15.935801064642	5
5	236	22.10073847246	6
5	296	30.364123911768	7
5	316	33.461036393504	8
5	352	36.144874041842	9
5	370	38.080772022404	10
5	392	42.027580569389	11
5	412	45.165338982177	12
5	430	46.555978637684	13
5	456	50.439299376115	14
5	474	52.383187879764	15
5	491	55.653575709329	16
5	548	59.763712188111	17
5	566	60.947133566648	18
5	620	66.662211813113	19
5	644	73.20845193488	20
5	681	76.509598774153	21
5	722	80.859894582377	22
5	742	83.044774247342	23
5	762	85.304673682283	24
5	800	89.622382014222	25
5	814	90.732704248968	26
5	854	93.763763621545	27
5	876	98.469204418998	28
5	894	99.726650151435	29
5	926	102.734100859847	30
5	945	104.348438722122	31
5	966	106.318603687822	32
5	984	108.252437505758	33
5	1002	109.354473932755	34
5	1076	117.34502971396	35
5	1090	118.627949995367	36
5	1108	120.546025081186	37
5	1130	121.632073686846	38
5	1145	122.948513658643	39
5	1166	124.313254904435	40
5	1188	128.771513300231	41
5	1208	131.674460169001	42
5	1226	133.501746474695	43
5	1244	135.114665059713	44
5	1262	136.820666158504	45
5	1316	143.586796165839	46
5	1338	145.155153244639	47
5	1358	148.075955253518	48
5	1390	151.479584714991	49
5	1432	158.697188439862	50
5	1456	161.546699974745	51
5	1511	169.526527218968	52
5	1529	171.0807182414	53
5	1550	172.387491545603	54
5	1568	174.136510087802	55
5	1624	180.383071653257	56
5	1638	181.806636506829	57
5	1660	183.275310995741	58
5	1678	184.73586543892	59
5	1696	186.440797802109	60
5	1746	191.05302194352	61
5	1766	194.074771086033	62
5	1802	196.786038881369	63
5	1838	199.808427078143	64
5	1856	201.654359815621	65
5	1874	203.234448444583	66
5	1907	206.090849106095	67
5	1938	209.157724814311	68
5	1992	213.167613162125	69
5	2016	216.770085082933	70
5	2052	219.873852647768	71
5	2070	221.127840407303	72
5	2090	223.901739901805	73
5	2106	226.364214388578	74
5	2124	228.232068422673	75
5	2142	229.383437602824	76
5	2164	230.482045700949	77
5	2179	232.219980119768	78
5	2200	233.294370396412	79
5	2220	236.418174563885	80
5	2238	238.200151368597	81

