version 2
run General-0-20231008-09:22:15-19267
attr configname General
attr datetime 20231008-09:22:15
attr experiment General
attr inifile omnetpp.ini
attr iterationvars ""
attr iterationvarsf ""
attr measurement ""
attr network Network3
attr processid 19267
attr repetition 0
attr replication #0
attr resultdir results
attr runnumber 0
attr seedset 0
param Network3.node[*].transmissionTime "uniform(1s, 2s)"
param Network3.node[*].delayTime "uniform(0.01s, 0.2s)"
param Network3.node[*].processingTime exponential(0.01s)
param Network3.node[0].lossProbability 0
param Network3.node[1].lossProbability 0.75
param Network3.node[2].lossProbability 0.75
param Network3.node[3].lossProbability "0.75 / 2"
param Network3.node[4].lossProbability "0.75 / 2"
param Network3.node[6].lossProbability "0.75 * 2"
param Network3.node[7].lossProbability "0.75 * 2"
param Network3.node[5].lossProbability "0.75 * 3"

vector 0 Network3.node[0] txVector ETV
vector 1 Network3.node[2] txVector ETV
vector 2 Network3.node[4] txVector ETV
vector 3 Network3.node[1] txVector ETV
vector 4 Network3.node[3] txVector ETV
0	1	0.114274565438	0
0	1	0.114274565438	1
0	11	1.707119181827	2
0	11	1.707119181827	3
0	14	3.09150089005	4
0	14	3.09150089005	5
0	32	4.983273891807	6
0	32	4.983273891807	7
0	38	6.003492290927	8
0	38	6.003492290927	9
0	53	7.873504436184	10
0	53	7.873504436184	11
0	67	9.410877664415	12
0	67	9.410877664415	13
0	70	10.54609583768	14
0	70	10.54609583768	15
0	73	12.16373133853	16
0	73	12.16373133853	17
0	76	13.386052724048	18
0	76	13.386052724048	19
0	91	15.32980079933	20
0	91	15.32980079933	21
0	94	16.50071038546	22
0	94	16.50071038546	23
0	105	17.629636683808	24
0	105	17.629636683808	25
0	108	19.588585953069	26
0	108	19.588585953069	27
0	111	20.79746271165	28
0	111	20.79746271165	29
0	114	22.792762277256	30
0	114	22.792762277256	31
0	117	24.046053878571	32
0	117	24.046053878571	33
0	120	25.520751383695	34
0	120	25.520751383695	35
0	123	26.679720970177	36
0	123	26.679720970177	37
0	126	28.354473292435	38
0	126	28.354473292435	39
0	140	29.492656241943	40
0	140	29.492656241943	41
0	151	31.469115707165	42
0	151	31.469115707165	43
0	157	32.910826628635	44
0	157	32.910826628635	45
0	160	34.391720164873	46
0	160	34.391720164873	47
0	174	35.709703338173	48
0	174	35.709703338173	49
0	181	36.803643844164	50
0	181	36.803643844164	51
0	191	37.813000545911	52
0	191	37.813000545911	53
0	194	39.210821297559	54
0	194	39.210821297559	55
0	200	40.230928848106	56
0	200	40.230928848106	57
0	203	41.90874538741	58
0	203	41.90874538741	59
0	206	43.612482668207	60
0	206	43.612482668207	61
0	209	45.574671213123	62
0	209	45.574671213123	63
0	212	47.330777904558	64
0	212	47.330777904558	65
0	227	48.922819831016	66
0	227	48.922819831016	67
0	245	50.689843533634	68
0	245	50.689843533634	69
0	248	51.920376556766	70
0	248	51.920376556766	71
0	251	53.344231600714	72
0	251	53.344231600714	73
0	254	54.819099122266	74
0	254	54.819099122266	75
0	257	56.120673938495	76
0	257	56.120673938495	77
0	260	57.408664942327	78
0	260	57.408664942327	79
0	263	59.026680369237	80
0	263	59.026680369237	81
0	266	60.905132560366	82
0	266	60.905132560366	83
0	269	62.203414888195	84
0	269	62.203414888195	85
0	272	63.557461552629	86
0	272	63.557461552629	87
0	275	65.131786808446	88
0	275	65.131786808446	89
0	278	67.100748574436	90
0	278	67.100748574436	91
0	284	68.53216700892	92
0	284	68.53216700892	93
0	299	69.968031928251	94
0	299	69.968031928251	95
0	305	71.809172058087	96
0	305	71.809172058087	97
0	308	73.317487508366	98
0	308	73.317487508366	99
0	322	74.441307490766	100
0	322	74.441307490766	101
0	325	75.894850171013	102
0	325	75.894850171013	103
0	343	76.945438283803	104
0	343	76.945438283803	105
0	346	78.284423400257	106
0	346	78.284423400257	107
0	364	79.302945194375	108
0	364	79.302945194375	109
0	367	80.880173779633	110
0	367	80.880173779633	111
0	382	82.872570175286	112
0	382	82.872570175286	113
0	385	84.082413929356	114
0	385	84.082413929356	115
0	396	85.301163297221	116
0	396	85.301163297221	117
0	399	86.359192459686	118
0	399	86.359192459686	119
0	409	87.84703016568	120
0	409	87.84703016568	121
0	412	89.701643748749	122
0	412	89.701643748749	123
0	415	91.381036524503	124
0	415	91.381036524503	125
0	418	93.058118100819	126
0	418	93.058118100819	127
0	436	94.954789391096	128
0	436	94.954789391096	129
0	442	96.543106508517	130
0	442	96.543106508517	131
0	445	98.415757166065	132
0	445	98.415757166065	133
0	463	99.841208703426	134
0	463	99.841208703426	135
0	466	101.798659559415	136
0	466	101.798659559415	137
0	469	102.824322272866	138
0	469	102.824322272866	139
0	472	103.978016576339	140
0	472	103.978016576339	141
0	475	105.352186554885	142
0	475	105.352186554885	143
0	478	106.56706729143	144
0	478	106.56706729143	145
0	489	108.153851636761	146
0	489	108.153851636761	147
0	492	109.85832589849	148
0	492	109.85832589849	149
0	503	111.423747206182	150
0	503	111.423747206182	151
0	514	112.454200171941	152
0	514	112.454200171941	153
0	520	114.038676244282	154
0	520	114.038676244282	155
0	523	115.27950502148	156
0	523	115.27950502148	157
0	526	116.342543314054	158
0	526	116.342543314054	159
0	529	118.272072632174	160
0	529	118.272072632174	161
0	540	120.10511072686	162
0	540	120.10511072686	163
0	551	122.082605862134	164
0	551	122.082605862134	165
0	569	123.57487410198	166
0	569	123.57487410198	167
0	579	125.43718388265	168
0	579	125.43718388265	169
0	582	126.706663318984	170
0	582	126.706663318984	171
0	592	127.843563593067	172
0	592	127.843563593067	173
0	598	128.941408079192	174
0	598	128.941408079192	175
0	605	130.902242733706	176
0	605	130.902242733706	177
0	608	132.301741650636	178
0	608	132.301741650636	179
0	622	133.708982818369	180
0	622	133.708982818369	181
0	640	134.855929459986	182
0	640	134.855929459986	183
0	643	136.126257363549	184
0	643	136.126257363549	185
0	646	137.718192527378	186
0	646	137.718192527378	187
0	649	139.01979116125	188
0	649	139.01979116125	189
0	652	140.478305714978	190
0	652	140.478305714978	191
0	655	142.161587048862	192
0	655	142.161587048862	193
0	658	144.014221972395	194
0	658	144.014221972395	195
0	665	145.394148923764	196
0	665	145.394148923764	197
0	668	147.054188785451	198
0	668	147.054188785451	199
0	675	148.832884182297	200
0	675	148.832884182297	201
0	678	149.902743199682	202
0	678	149.902743199682	203
0	693	151.175565096624	204
0	693	151.175565096624	205
0	696	153.058274383731	206
0	696	153.058274383731	207
0	710	154.635817332733	208
0	710	154.635817332733	209
0	713	156.317209844784	210
0	713	156.317209844784	211
0	716	157.856433441703	212
0	716	157.856433441703	213
0	722	159.249109122976	214
0	722	159.249109122976	215
0	725	161.153093074522	216
0	725	161.153093074522	217
0	735	162.245353244551	218
0	735	162.245353244551	219
0	749	163.338812699382	220
0	749	163.338812699382	221
0	752	165.105776205499	222
0	752	165.105776205499	223
0	770	166.902167680281	224
0	770	166.902167680281	225
0	781	168.811011391765	226
0	781	168.811011391765	227
0	784	170.747757868914	228
0	784	170.747757868914	229
0	790	172.006441934573	230
0	790	172.006441934573	231
0	793	173.96542465601	232
0	793	173.96542465601	233
0	796	175.409303335779	234
0	796	175.409303335779	235
0	799	176.425631840554	236
0	799	176.425631840554	237
0	802	178.270989524973	238
0	802	178.270989524973	239
0	805	180.200280938371	240
0	805	180.200280938371	241
0	815	181.809458516379	242
0	815	181.809458516379	243
0	821	183.046631806837	244
0	821	183.046631806837	245
0	824	184.559706673333	246
0	824	184.559706673333	247
0	827	185.627780749537	248
0	827	185.627780749537	249
0	830	186.660246045636	250
0	830	186.660246045636	251
0	848	187.913437236641	252
0	848	187.913437236641	253
0	855	189.552198991254	254
0	855	189.552198991254	255
0	866	190.864952283986	256
0	866	190.864952283986	257
0	884	192.530811398132	258
0	884	192.530811398132	259
0	887	194.455778314341	260
0	887	194.455778314341	261
0	890	196.19446097252	262
0	890	196.19446097252	263
0	905	197.542980335961	264
0	905	197.542980335961	265
0	908	198.771243949729	266
0	908	198.771243949729	267
0	926	200.7221965581	268
0	926	200.7221965581	269
0	929	202.470984810573	270
0	929	202.470984810573	271
0	932	204.266519557527	272
0	932	204.266519557527	273
0	935	205.715811205637	274
0	935	205.715811205637	275
0	953	207.601773471181	276
0	953	207.601773471181	277
0	971	208.750602767645	278
0	971	208.750602767645	279
0	981	209.850634819903	280
0	981	209.850634819903	281
0	984	210.999112903448	282
0	984	210.999112903448	283
0	987	212.895874060067	284
0	987	212.895874060067	285
0	997	214.475786460406	286
0	997	214.475786460406	287
0	1000	216.363830166246	288
0	1000	216.363830166246	289
0	1003	217.674210991786	290
0	1003	217.674210991786	291
0	1006	219.569074186572	292
0	1006	219.569074186572	293
0	1009	221.319669205538	294
0	1009	221.319669205538	295
0	1023	222.649211912491	296
0	1023	222.649211912491	297
0	1026	224.15984081531	298
0	1026	224.15984081531	299
0	1029	225.840355297626	300
0	1029	225.840355297626	301
0	1035	227.785062776255	302
0	1035	227.785062776255	303
0	1038	229.42409016083	304
0	1038	229.42409016083	305
0	1041	231.303324924624	306
0	1041	231.303324924624	307
0	1051	232.451593564898	308
0	1051	232.451593564898	309
0	1054	233.476120965164	310
0	1054	233.476120965164	311
0	1057	235.398232428664	312
0	1057	235.398232428664	313
0	1060	236.900941973161	314
0	1060	236.900941973161	315
0	1063	237.925255171564	316
0	1063	237.925255171564	317
0	1066	239.831427012412	318
0	1066	239.831427012412	319
1	4	0.133506796753	0
1	4	0.133506796753	1
1	17	3.104684451458	2
1	17	3.104684451458	3
1	35	5.024775591094	4
1	35	5.024775591094	5
1	64	7.937487931851	6
1	64	7.937487931851	7
1	130	28.369073432012	8
1	130	28.369073432012	9
1	154	31.480396274818	10
1	154	31.480396274818	11
1	163	34.402383138888	12
1	163	34.402383138888	13
1	184	36.8150571513	14
1	184	36.8150571513	15
1	197	39.225438606519	16
1	197	39.225438606519	17
1	242	48.972794990079	18
1	242	48.972794990079	19
1	281	67.112271510689	20
1	281	67.112271510689	21
1	302	69.998291016422	22
1	302	69.998291016422	23
1	311	73.343954699379	24
1	311	73.343954699379	25
1	328	75.905017848673	26
1	328	75.905017848673	27
1	349	78.300649373697	28
1	349	78.300649373697	29
1	402	86.381111040723	30
1	402	86.381111040723	31
1	421	93.074457401013	32
1	421	93.074457401013	33
1	439	94.972123067828	34
1	439	94.972123067828	35
1	460	98.502950051775	36
1	460	98.502950051775	37
1	517	112.466546730434	38
1	517	112.466546730434	39
1	554	122.099264287	40
1	554	122.099264287	41
1	572	123.624953598529	42
1	572	123.624953598529	43
1	585	126.720199284737	44
1	585	126.720199284737	45
1	595	127.861984956095	46
1	595	127.861984956095	47
1	611	132.31316290575	48
1	611	132.31316290575	49
1	637	133.770660890973	50
1	637	133.770660890973	51
1	699	153.07018734419	52
1	699	153.07018734419	53
1	719	157.868175428869	54
1	719	157.868175428869	55
1	728	161.184467291426	56
1	728	161.184467291426	57
1	746	162.289863954507	58
1	746	162.289863954507	59
1	755	165.118427136513	60
1	755	165.118427136513	61
1	787	170.771315054053	62
1	787	170.771315054053	63
1	808	180.211246351161	64
1	808	180.211246351161	65
1	818	181.819794855588	66
1	818	181.819794855588	67
1	842	186.697567166152	68
1	842	186.697567166152	69
1	869	190.880470305202	70
1	869	190.880470305202	71
1	920	198.814476388152	72
1	920	198.814476388152	73
1	950	205.762541904021	74
1	950	205.762541904021	75
1	961	207.624080659691	76
1	961	207.624080659691	77
1	974	208.783177535553	78
1	974	208.783177535553	79
1	990	212.909043833866	80
1	990	212.909043833866	81
1	1012	221.331515364267	82
1	1012	221.331515364267	83
1	1032	225.852648469342	84
1	1032	225.852648469342	85
1	1044	231.313631942354	86
1	1044	231.313631942354	87
2	7	0.162296437295	0
2	7	0.162296437295	1
2	7	0.162296437295	2
2	20	3.130373412634	3
2	20	3.130373412634	4
2	20	3.130373412634	5
2	45	6.068133804214	6
2	45	6.068133804214	7
2	45	6.068133804214	8
2	60	7.914135030005	9
2	60	7.914135030005	10
2	60	7.914135030005	11
2	83	13.423249437662	12
2	83	13.423249437662	13
2	83	13.423249437662	14
2	134	28.376798744184	15
2	134	28.376798744184	16
2	134	28.376798744184	17
2	170	34.420711574049	18
2	170	34.420711574049	19
2	170	34.420711574049	20
2	187	36.843469976015	21
2	187	36.843469976015	22
2	187	36.843469976015	23
2	223	47.389792929243	24
2	223	47.389792929243	25
2	223	47.389792929243	26
2	234	48.951001160743	27
2	234	48.951001160743	28
2	234	48.951001160743	29
2	295	68.586586350445	30
2	295	68.586586350445	31
2	295	68.586586350445	32
2	315	73.355462609481	33
2	315	73.355462609481	34
2	315	73.355462609481	35
2	335	75.923861817666	36
2	335	75.923861817666	37
2	335	75.923861817666	38
2	352	78.314885944711	39
2	352	78.314885944711	40
2	352	78.314885944711	41
2	375	80.923255177358	42
2	375	80.923255177358	43
2	375	80.923255177358	44
2	392	84.145988503915	45
2	392	84.145988503915	46
2	392	84.145988503915	47
2	405	86.400725436439	48
2	405	86.400725436439	49
2	405	86.400725436439	50
2	424	93.095336445349	51
2	424	93.095336445349	52
2	424	93.095336445349	53
2	452	98.463505249001	54
2	452	98.463505249001	55
2	452	98.463505249001	56
2	485	106.61429292187	57
2	485	106.61429292187	58
2	485	106.61429292187	59
2	510	111.459942617252	60
2	510	111.459942617252	61
2	510	111.459942617252	62
2	536	118.335636765081	63
2	536	118.335636765081	64
2	536	118.335636765081	65
2	561	122.130001901631	66
2	561	122.130001901631	67
2	561	122.130001901631	68
2	575	123.648960355499	69
2	575	123.648960355499	70
2	575	123.648960355499	71
2	588	126.737359737917	72
2	588	126.737359737917	73
2	588	126.737359737917	74
2	618	132.324524821189	75
2	618	132.324524821189	76
2	618	132.324524821189	77
2	630	133.740960315317	78
2	630	133.740960315317	79
2	630	133.740960315317	80
2	686	149.933536292795	81
2	686	149.933536292795	82
2	686	149.933536292795	83
2	702	153.080547372487	84
2	702	153.080547372487	85
2	702	153.080547372487	86
2	731	161.210580611417	87
2	731	161.210580611417	88
2	731	161.210580611417	89
2	742	162.279589533503	90
2	742	162.279589533503	91
2	742	162.279589533503	92
2	758	165.13736715054	93
2	758	165.13736715054	94
2	758	165.13736715054	95
2	837	186.682877952879	96
2	837	186.682877952879	97
2	837	186.682877952879	98
2	876	190.896053573095	99
2	876	190.896053573095	100
2	876	190.896053573095	101
2	901	196.266061712467	102
2	901	196.266061712467	103
2	901	196.266061712467	104
2	915	198.79450339891	105
2	915	198.79450339891	106
2	915	198.79450339891	107
2	943	205.748252785663	108
2	943	205.748252785663	109
2	943	205.748252785663	110
2	960	207.623922466082	111
2	960	207.623922466082	112
2	960	207.623922466082	113
2	977	208.793372428483	114
2	977	208.793372428483	115
2	977	208.793372428483	116
2	993	212.954134469376	117
2	993	212.954134469376	118
2	993	212.954134469376	119
2	1015	221.344440870279	120
2	1015	221.344440870279	121
2	1015	221.344440870279	122
2	1047	231.32719360017	123
2	1047	231.32719360017	124
2	1047	231.32719360017	125
3	24	3.147900153767	0
3	24	3.147900153767	1
3	24	3.147900153767	2
3	41	6.051944509618	3
3	41	6.051944509618	4
3	41	6.051944509618	5
3	56	7.897718082985	6
3	56	7.897718082985	7
3	56	7.897718082985	8
3	79	13.407504113595	9
3	79	13.407504113595	10
3	79	13.407504113595	11
3	97	16.514500005103	12
3	97	16.514500005103	13
3	97	16.514500005103	14
3	129	28.3666620984	15
3	129	28.3666620984	16
3	129	28.3666620984	17
3	143	29.508979607907	18
3	143	29.508979607907	19
3	143	29.508979607907	20
3	164	34.407069008631	21
3	164	34.407069008631	22
3	164	34.407069008631	23
3	177	35.728282294584	24
3	177	35.728282294584	25
3	177	35.728282294584	26
3	215	47.349270112674	27
3	215	47.349270112674	28
3	215	47.349270112674	29
3	230	48.938127055982	30
3	230	48.938127055982	31
3	230	48.938127055982	32
3	287	68.564416155492	33
3	287	68.564416155492	34
3	287	68.564416155492	35
3	312	73.346326797232	36
3	312	73.346326797232	37
3	312	73.346326797232	38
3	329	75.909399289461	39
3	329	75.909399289461	40
3	329	75.909399289461	41
3	356	78.351208133336	42
3	356	78.351208133336	43
3	356	78.351208133336	44
3	370	80.893283457683	45
3	370	80.893283457683	46
3	370	80.893283457683	47
3	388	84.10084371711	48
3	388	84.10084371711	49
3	388	84.10084371711	50
3	428	93.108392494367	51
3	428	93.108392494367	52
3	428	93.108392494367	53
3	448	98.447414802874	54
3	448	98.447414802874	55
3	448	98.447414802874	56
3	481	106.597007683443	57
3	481	106.597007683443	58
3	481	106.597007683443	59
3	495	109.870350486127	60
3	495	109.870350486127	61
3	495	109.870350486127	62
3	506	111.447490636326	63
3	506	111.447490636326	64
3	506	111.447490636326	65
3	532	118.32363234313	66
3	532	118.32363234313	67
3	532	118.32363234313	68
3	543	120.136026292586	69
3	543	120.136026292586	70
3	543	120.136026292586	71
3	555	122.10517823209	72
3	555	122.10517823209	73
3	555	122.10517823209	74
3	601	128.975111954998	75
3	601	128.975111954998	76
3	601	128.975111954998	77
3	612	132.314384355277	78
3	612	132.314384355277	79
3	612	132.314384355277	80
3	625	133.719811441098	81
3	625	133.719811441098	82
3	625	133.719811441098	83
3	661	144.026220527774	84
3	661	144.026220527774	85
3	661	144.026220527774	86
3	671	147.079212913388	87
3	671	147.079212913388	88
3	671	147.079212913388	89
3	681	149.917377099957	90
3	681	149.917377099957	91
3	681	149.917377099957	92
3	706	153.096175624505	93
3	706	153.096175624505	94
3	706	153.096175624505	95
3	738	162.260909833683	96
3	738	162.260909833683	97
3	738	162.260909833683	98
3	762	165.166866919658	99
3	762	165.166866919658	100
3	762	165.166866919658	101
3	773	166.929070029829	102
3	773	166.929070029829	103
3	773	166.929070029829	104
3	809	180.211317646737	105
3	809	180.211317646737	106
3	809	180.211317646737	107
3	833	186.671650802806	108
3	833	186.671650802806	109
3	833	186.671650802806	110
3	851	187.930176671083	111
3	851	187.930176671083	112
3	851	187.930176671083	113
3	858	189.578385601918	114
3	858	189.578385601918	115
3	858	189.578385601918	116
3	870	190.882236059716	117
3	870	190.882236059716	118
3	870	190.882236059716	119
3	893	196.221333155408	120
3	893	196.221333155408	121
3	893	196.221333155408	122
3	911	198.783902115219	123
3	911	198.783902115219	124
3	911	198.783902115219	125
3	938	205.730147854191	126
3	938	205.730147854191	127
3	938	205.730147854191	128
3	956	207.613187402308	129
3	956	207.613187402308	130
3	956	207.613187402308	131
3	1019	221.363818454562	132
3	1019	221.363818454562	133
3	1019	221.363818454562	134
3	1069	239.843781071077	135
3	1069	239.843781071077	136
3	1069	239.843781071077	137
4	28	3.158637007322	0
4	28	3.158637007322	1
4	28	3.158637007322	2
4	46	6.077109869358	3
4	46	6.077109869358	4
4	46	6.077109869358	5
4	84	13.42946519159	6
4	84	13.42946519159	7
4	84	13.42946519159	8
4	101	16.524891836667	9
4	101	16.524891836667	10
4	101	16.524891836667	11
4	147	29.524979076773	12
4	147	29.524979076773	13
4	147	29.524979076773	14
4	219	47.365196352949	15
4	219	47.365196352949	16
4	219	47.365196352949	17
4	235	48.951884444406	18
4	235	48.951884444406	19
4	235	48.951884444406	20
4	291	68.575472281928	21
4	291	68.575472281928	22
4	291	68.575472281928	23
4	336	75.932492273101	24
4	336	75.932492273101	25
4	336	75.932492273101	26
4	360	78.363007706752	27
4	360	78.363007706752	28
4	360	78.363007706752	29
4	374	80.917180228321	30
4	374	80.917180228321	31
4	374	80.917180228321	32
4	432	93.122249371307	33
4	432	93.122249371307	34
4	432	93.122249371307	35
4	453	98.464019833671	36
4	453	98.464019833671	37
4	453	98.464019833671	38
4	499	109.88168389236	39
4	499	109.88168389236	40
4	499	109.88168389236	41
4	547	120.152099085472	42
4	547	120.152099085472	43
4	547	120.152099085472	44
4	562	122.134079249071	45
4	562	122.134079249071	46
4	562	122.134079249071	47
4	629	133.732626681323	48
4	629	133.732626681323	49
4	629	133.732626681323	50
4	685	149.927833480452	51
4	685	149.927833480452	52
4	685	149.927833480452	53
4	766	165.185441270684	54
4	766	165.185441270684	55
4	766	165.185441270684	56
4	777	166.949110541568	57
4	777	166.949110541568	58
4	777	166.949110541568	59
4	838	186.691286729769	60
4	838	186.691286729769	61
4	838	186.691286729769	62
4	862	189.59924763503	63
4	862	189.59924763503	64
4	862	189.59924763503	65
4	877	190.905638819336	66
4	877	190.905638819336	67
4	877	190.905638819336	68
4	897	196.254866503089	69
4	897	196.254866503089	70
4	897	196.254866503089	71
4	919	198.80702174603	72
4	919	198.80702174603	73
4	919	198.80702174603	74
4	942	205.74239827913	75
4	942	205.74239827913	76
4	942	205.74239827913	77
4	962	207.626651735583	78
4	962	207.626651735583	79
4	962	207.626651735583	80
4	1073	239.857202817993	81
4	1073	239.857202817993	82
4	1073	239.857202817993	83

