version 2
run General-3-20231008-09:22:15-19267
attr configname General
attr datetime 20231008-09:22:15
attr experiment General
attr inifile omnetpp.ini
attr iterationvars ""
attr iterationvarsf ""
attr measurement ""
attr network Network3
attr processid 19267
attr repetition 3
attr replication #3
attr resultdir results
attr runnumber 3
attr seedset 3
param Network3.node[*].transmissionTime "uniform(1s, 2s)"
param Network3.node[*].delayTime "uniform(0.01s, 0.2s)"
param Network3.node[*].processingTime exponential(0.01s)
param Network3.node[0].lossProbability 0
param Network3.node[1].lossProbability 0.75
param Network3.node[2].lossProbability 0.75
param Network3.node[3].lossProbability "0.75 / 2"
param Network3.node[4].lossProbability "0.75 / 2"
param Network3.node[6].lossProbability "0.75 * 2"
param Network3.node[7].lossProbability "0.75 * 2"
param Network3.node[5].lossProbability "0.75 * 3"

vector 0 Network3.node[0] txVector ETV
vector 1 Network3.node[2] txVector ETV
vector 2 Network3.node[4] txVector ETV
vector 3 Network3.node[1] txVector ETV
vector 4 Network3.node[3] txVector ETV
0	1	0.114651601831	0
0	1	0.114651601831	1
0	15	1.185376482154	2
0	15	1.185376482154	3
0	18	2.433264783886	4
0	18	2.433264783886	5
0	21	3.87407462236	6
0	21	3.87407462236	7
0	24	5.019444769784	8
0	24	5.019444769784	9
0	27	6.668588821381	10
0	27	6.668588821381	11
0	30	8.022493894282	12
0	30	8.022493894282	13
0	44	9.613356705359	14
0	44	9.613356705359	15
0	47	11.053810427966	16
0	47	11.053810427966	17
0	53	12.508418192923	18
0	53	12.508418192923	19
0	71	13.766003484674	20
0	71	13.766003484674	21
0	77	15.179722168319	22
0	77	15.179722168319	23
0	80	16.202839736896	24
0	80	16.202839736896	25
0	83	17.609359653969	26
0	83	17.609359653969	27
0	86	19.357517090696	28
0	86	19.357517090696	29
0	89	20.649309864105	30
0	89	20.649309864105	31
0	100	22.302940716571	32
0	100	22.302940716571	33
0	115	23.508351056673	34
0	115	23.508351056673	35
0	121	24.965683231898	36
0	121	24.965683231898	37
0	124	26.809470327175	38
0	124	26.809470327175	39
0	127	28.149318991066	40
0	127	28.149318991066	41
0	130	29.975447065732	42
0	130	29.975447065732	43
0	133	31.420592117658	44
0	133	31.420592117658	45
0	139	32.722855731215	46
0	139	32.722855731215	47
0	142	33.744081471417	48
0	142	33.744081471417	49
0	145	35.394558333162	50
0	145	35.394558333162	51
0	151	36.900132390972	52
0	151	36.900132390972	53
0	154	38.825865175411	54
0	154	38.825865175411	55
0	157	40.024841200629	56
0	157	40.024841200629	57
0	160	42.015142389176	58
0	160	42.015142389176	59
0	171	43.144436252372	60
0	171	43.144436252372	61
0	174	44.506086869932	62
0	174	44.506086869932	63
0	192	45.769973540281	64
0	192	45.769973540281	65
0	195	47.403639108011	66
0	195	47.403639108011	67
0	198	49.285547555726	68
0	198	49.285547555726	69
0	209	50.481928133475	70
0	209	50.481928133475	71
0	212	51.670178981567	72
0	212	51.670178981567	73
0	215	52.759969849209	74
0	215	52.759969849209	75
0	233	53.932332748617	76
0	233	53.932332748617	77
0	239	54.971250846353	78
0	239	54.971250846353	79
0	242	56.228457224392	80
0	242	56.228457224392	81
0	245	57.959165350604	82
0	245	57.959165350604	83
0	259	59.856902379845	84
0	259	59.856902379845	85
0	277	60.986560763861	86
0	277	60.986560763861	87
0	280	62.326566689019	88
0	280	62.326566689019	89
0	283	64.190686358674	90
0	283	64.190686358674	91
0	301	66.007721719634	92
0	301	66.007721719634	93
0	304	67.657294978224	94
0	304	67.657294978224	95
0	319	69.534507013461	96
0	319	69.534507013461	97
0	333	71.354049097117	98
0	333	71.354049097117	99
0	351	72.379576969961	100
0	351	72.379576969961	101
0	365	74.161960949026	102
0	365	74.161960949026	103
0	376	76.131390118575	104
0	376	76.131390118575	105
0	379	77.874127391329	106
0	379	77.874127391329	107
0	382	79.656884921784	108
0	382	79.656884921784	109
0	388	80.813147348654	110
0	388	80.813147348654	111
0	391	82.642148425872	112
0	391	82.642148425872	113
0	401	84.444976395997	114
0	401	84.444976395997	115
0	404	85.728665845771	116
0	404	85.728665845771	117
0	407	87.267458507861	118
0	407	87.267458507861	119
0	417	88.39327954764	120
0	417	88.39327954764	121
0	420	89.686634061462	122
0	420	89.686634061462	123
0	423	91.305370644969	124
0	423	91.305370644969	125
0	426	93.093959781178	126
0	426	93.093959781178	127
0	429	94.892678052955	128
0	429	94.892678052955	129
0	432	96.017299803043	130
0	432	96.017299803043	131
0	435	97.260277986363	132
0	435	97.260277986363	133
0	438	98.273033477668	134
0	438	98.273033477668	135
0	449	99.303344835364	136
0	449	99.303344835364	137
0	452	100.725969252945	138
0	452	100.725969252945	139
0	455	102.116927269916	140
0	455	102.116927269916	141
0	458	103.297667598887	142
0	458	103.297667598887	143
0	461	104.669647908606	144
0	461	104.669647908606	145
0	471	106.446409942884	146
0	471	106.446409942884	147
0	478	108.101543853827	148
0	478	108.101543853827	149
0	485	109.803563979291	150
0	485	109.803563979291	151
0	488	111.129827984678	152
0	488	111.129827984678	153
0	491	112.134094425314	154
0	491	112.134094425314	155
0	497	113.636017768714	156
0	497	113.636017768714	157
0	515	115.47492117628	158
0	515	115.47492117628	159
0	525	116.881198361353	160
0	525	116.881198361353	161
0	528	118.711068397923	162
0	528	118.711068397923	163
0	531	120.491071620327	164
0	531	120.491071620327	165
0	534	121.682354911533	166
0	534	121.682354911533	167
0	552	123.553844456863	168
0	552	123.553844456863	169
0	567	125.289168639876	170
0	567	125.289168639876	171
0	582	127.185577626409	172
0	582	127.185577626409	173
0	585	128.947693469305	174
0	585	128.947693469305	175
0	588	130.844757077121	176
0	588	130.844757077121	177
0	599	131.971194376773	178
0	599	131.971194376773	179
0	614	133.600036528497	180
0	614	133.600036528497	181
0	617	135.468591160444	182
0	617	135.468591160444	183
0	620	136.647591609578	184
0	620	136.647591609578	185
0	623	138.338555313251	186
0	623	138.338555313251	187
0	629	139.750986379641	188
0	629	139.750986379641	189
0	632	141.473428582144	190
0	632	141.473428582144	191
0	635	142.683135021781	192
0	635	142.683135021781	193
0	638	143.847734569875	194
0	638	143.847734569875	195
0	656	145.417942813668	196
0	656	145.417942813668	197
0	662	147.355537820911	198
0	662	147.355537820911	199
0	672	148.892972197222	200
0	672	148.892972197222	201
0	675	149.932333645482	202
0	675	149.932333645482	203
0	678	151.328595821118	204
0	678	151.328595821118	205
0	681	153.060301497649	206
0	681	153.060301497649	207
0	692	154.587205390982	208
0	692	154.587205390982	209
0	706	156.006598339952	210
0	706	156.006598339952	211
0	709	157.732766336832	212
0	709	157.732766336832	213
0	712	158.738823379228	214
0	712	158.738823379228	215
0	730	160.203360356694	216
0	730	160.203360356694	217
0	733	161.822687626887	218
0	733	161.822687626887	219
0	743	163.049892064953	220
0	743	163.049892064953	221
0	753	164.087029018976	222
0	753	164.087029018976	223
0	756	165.61051355356	224
0	756	165.61051355356	225
0	767	167.366043028493	226
0	767	167.366043028493	227
0	770	168.469027940488	228
0	770	168.469027940488	229
0	780	169.85085298035	230
0	780	169.85085298035	231
0	783	171.764388792288	232
0	783	171.764388792288	233
0	786	172.885986097694	234
0	786	172.885986097694	235
0	789	173.97020774854	236
0	789	173.97020774854	237
0	799	175.534029498069	238
0	799	175.534029498069	239
0	802	177.04645308999	240
0	802	177.04645308999	241
0	805	178.719812733891	242
0	805	178.719812733891	243
0	808	179.975518046251	244
0	808	179.975518046251	245
0	811	181.399633946434	246
0	811	181.399633946434	247
0	826	183.357105111774	248
0	826	183.357105111774	249
0	829	184.979417751847	250
0	829	184.979417751847	251
0	832	186.156021191111	252
0	832	186.156021191111	253
0	835	187.497497824092	254
0	835	187.497497824092	255
0	838	189.173501315365	256
0	838	189.173501315365	257
0	852	190.464783520276	258
0	852	190.464783520276	259
0	855	191.818948014245	260
0	855	191.818948014245	261
0	865	192.913426103375	262
0	865	192.913426103375	263
0	883	194.236193472824	264
0	883	194.236193472824	265
0	886	195.950567185718	266
0	886	195.950567185718	267
0	892	197.916323438592	268
0	892	197.916323438592	269
0	907	198.931038223047	270
0	907	198.931038223047	271
0	918	200.152800131895	272
0	918	200.152800131895	273
0	921	201.259565069413	274
0	921	201.259565069413	275
0	939	202.57111440583	276
0	939	202.57111440583	277
0	942	204.172995158312	278
0	942	204.172995158312	279
0	960	205.80130957703	280
0	960	205.80130957703	281
0	963	207.311782412304	282
0	963	207.311782412304	283
0	966	209.194113907012	284
0	966	209.194113907012	285
0	976	210.515952961127	286
0	976	210.515952961127	287
0	979	211.531053731291	288
0	979	211.531053731291	289
0	997	213.398061963337	290
0	997	213.398061963337	291
0	1015	215.231747482045	292
0	1015	215.231747482045	293
0	1018	216.971107402191	294
0	1018	216.971107402191	295
0	1021	218.84991599813	296
0	1021	218.84991599813	297
0	1024	220.527189254369	298
0	1024	220.527189254369	299
0	1027	222.427235279306	300
0	1027	222.427235279306	301
0	1030	224.288401264305	302
0	1030	224.288401264305	303
0	1033	225.993455853619	304
0	1033	225.993455853619	305
0	1036	227.175703198023	306
0	1036	227.175703198023	307
0	1039	228.242273186173	308
0	1039	228.242273186173	309
0	1042	229.680308022143	310
0	1042	229.680308022143	311
0	1060	230.970950452683	312
0	1060	230.970950452683	313
0	1070	232.462614350559	314
0	1070	232.462614350559	315
0	1076	233.856155798144	316
0	1076	233.856155798144	317
0	1083	235.604538838218	318
0	1083	235.604538838218	319
0	1086	236.959313107726	320
0	1086	236.959313107726	321
0	1089	238.682462266718	322
0	1089	238.682462266718	323
1	4	0.128089255914	0
1	4	0.128089255914	1
1	34	8.040677690138	2
1	34	8.040677690138	3
1	50	11.078966022897	4
1	50	11.078966022897	5
1	56	12.523327953243	6
1	56	12.523327953243	7
1	74	13.784164336663	8
1	74	13.784164336663	9
1	118	23.530036483199	10
1	118	23.530036483199	11
1	136	31.466206697835	12
1	136	31.466206697835	13
1	148	35.41363818082	14
1	148	35.41363818082	15
1	177	44.533222679892	16
1	177	44.533222679892	17
1	218	52.773100632027	18
1	218	52.773100632027	19
1	236	53.947679269637	20
1	236	53.947679269637	21
1	248	57.972378159878	22
1	248	57.972378159878	23
1	262	59.899018202352	24
1	262	59.899018202352	25
1	286	64.202406511102	26
1	286	64.202406511102	27
1	322	69.545626632976	28
1	322	69.545626632976	29
1	336	71.366481915193	30
1	336	71.366481915193	31
1	362	72.436385703856	32
1	362	72.436385703856	33
1	385	79.674147531221	34
1	385	79.674147531221	35
1	394	82.652791459135	36
1	394	82.652791459135	37
1	410	87.283191851466	38
1	410	87.283191851466	39
1	464	104.68223189765	40
1	464	104.68223189765	41
1	494	112.144729583427	42
1	494	112.144729583427	43
1	500	113.647343459658	44
1	500	113.647343459658	45
1	518	115.505091756479	46
1	518	115.505091756479	47
1	537	121.692899209618	48
1	537	121.692899209618	49
1	626	138.349632660192	50
1	626	138.349632660192	51
1	641	143.867082776792	52
1	641	143.867082776792	53
1	659	145.430684863434	54
1	659	145.430684863434	55
1	665	147.372573523412	56
1	665	147.372573523412	57
1	695	154.602543246104	58
1	695	154.602543246104	59
1	716	158.753806947958	60
1	716	158.753806947958	61
1	736	161.836918116892	62
1	736	161.836918116892	63
1	746	163.06913782109	64
1	746	163.06913782109	65
1	773	168.4886537054	66
1	773	168.4886537054	67
1	792	173.983546602917	68
1	792	173.983546602917	69
1	849	189.237352771356	70
1	849	189.237352771356	71
1	858	191.830905304016	72
1	858	191.830905304016	73
1	880	192.986919146483	74
1	880	192.986919146483	75
1	889	195.96921277716	76
1	889	195.96921277716	77
1	936	201.343732831165	78
1	936	201.343732831165	79
1	949	204.201463000859	80
1	949	204.201463000859	81
1	969	209.216711626534	82
1	969	209.216711626534	83
1	982	211.544372327342	84
1	982	211.544372327342	85
1	1008	213.445771933463	86
1	1008	213.445771933463	87
1	1045	229.702139417679	88
1	1045	229.702139417679	89
1	1063	231.018241435581	90
1	1063	231.018241435581	91
1	1073	232.493173990927	92
1	1073	232.493173990927	93
2	7	0.146512953746	0
2	7	0.146512953746	1
2	7	0.146512953746	2
2	59	12.533536252712	3
2	59	12.533536252712	4
2	59	12.533536252712	5
2	107	22.32610210742	6
2	107	22.32610210742	7
2	107	22.32610210742	8
2	180	44.556180618938	9
2	180	44.556180618938	10
2	180	44.556180618938	11
2	226	52.789175454014	12
2	226	52.789175454014	13
2	226	52.789175454014	14
2	251	58.036289451244	15
2	251	58.036289451244	16
2	251	58.036289451244	17
2	265	59.926409762168	18
2	265	59.926409762168	19
2	265	59.926409762168	20
2	289	64.216083634978	21
2	289	64.216083634978	22
2	289	64.216083634978	23
2	311	67.695006995577	24
2	311	67.695006995577	25
2	311	67.695006995577	26
2	329	69.561492953192	27
2	329	69.561492953192	28
2	329	69.561492953192	29
2	339	71.392579161085	30
2	339	71.392579161085	31
2	339	71.392579161085	32
2	358	72.420605311982	33
2	358	72.420605311982	34
2	358	72.420605311982	35
2	372	74.1961946665	36
2	372	74.1961946665	37
2	372	74.1961946665	38
2	397	82.684338686444	39
2	397	82.684338686444	40
2	397	82.684338686444	41
2	413	87.302781362461	42
2	413	87.302781362461	43
2	413	87.302781362461	44
2	467	104.706529811272	45
2	467	104.706529811272	46
2	467	104.706529811272	47
2	507	113.670649914044	48
2	507	113.670649914044	49
2	507	113.670649914044	50
2	521	115.516209360425	51
2	521	115.516209360425	52
2	521	115.516209360425	53
2	540	121.705801800868	54
2	540	121.705801800868	55
2	540	121.705801800868	56
2	560	123.585733271138	57
2	560	123.585733271138	58
2	560	123.585733271138	59
2	575	125.359625719882	60
2	575	125.359625719882	61
2	575	125.359625719882	62
2	595	130.872271264114	63
2	595	130.872271264114	64
2	595	130.872271264114	65
2	607	132.00987519988	66
2	607	132.00987519988	67
2	607	132.00987519988	68
2	644	143.899288643862	69
2	644	143.899288643862	70
2	644	143.899288643862	71
2	668	147.386180637555	72
2	668	147.386180637555	73
2	668	147.386180637555	74
2	688	153.100572622834	75
2	688	153.100572622834	76
2	688	153.100572622834	77
2	698	154.614031488186	78
2	698	154.614031488186	79
2	698	154.614031488186	80
2	726	158.819803521384	81
2	726	158.819803521384	82
2	726	158.819803521384	83
2	739	161.848770594906	84
2	739	161.848770594906	85
2	739	161.848770594906	86
2	749	163.084677839773	87
2	749	163.084677839773	88
2	749	163.084677839773	89
2	763	165.658994154696	90
2	763	165.658994154696	91
2	763	165.658994154696	92
2	776	168.511237360834	93
2	776	168.511237360834	94
2	776	168.511237360834	95
2	795	173.999915553168	96
2	795	173.999915553168	97
2	795	173.999915553168	98
2	822	181.441938178697	99
2	822	181.441938178697	100
2	822	181.441938178697	101
2	845	189.227065750726	102
2	845	189.227065750726	103
2	845	189.227065750726	104
2	861	191.844674094054	105
2	861	191.844674094054	106
2	861	191.844674094054	107
2	873	192.96996042005	108
2	873	192.96996042005	109
2	873	192.96996042005	110
2	900	197.965938972615	111
2	900	197.965938972615	112
2	900	197.965938972615	113
2	932	201.291115774125	114
2	932	201.291115774125	115
2	932	201.291115774125	116
2	956	204.227804222504	117
2	956	204.227804222504	118
2	956	204.227804222504	119
2	972	209.229409361372	120
2	972	209.229409361372	121
2	972	209.229409361372	122
2	985	211.5598433576	123
2	985	211.5598433576	124
2	985	211.5598433576	125
2	1004	213.431583270698	126
2	1004	213.431583270698	127
2	1004	213.431583270698	128
2	1052	229.717315993013	129
2	1052	229.717315993013	130
2	1052	229.717315993013	131
2	1066	231.031745325522	132
2	1066	231.031745325522	133
2	1066	231.031745325522	134
3	11	0.162258810494	0
3	11	0.162258810494	1
3	11	0.162258810494	2
3	33	8.032736635586	3
3	33	8.032736635586	4
3	33	8.032736635586	5
3	63	12.545076128488	6
3	63	12.545076128488	7
3	63	12.545076128488	8
3	92	20.670177282308	9
3	92	20.670177282308	10
3	92	20.670177282308	11
3	103	22.31518940088	12
3	103	22.31518940088	13
3	103	22.31518940088	14
3	163	42.033200571181	15
3	163	42.033200571181	16
3	163	42.033200571181	17
3	184	44.572724499152	18
3	184	44.572724499152	19
3	184	44.572724499152	20
3	201	49.297680382735	21
3	201	49.297680382735	22
3	201	49.297680382735	23
3	219	52.773513865277	24
3	219	52.773513865277	25
3	219	52.773513865277	26
3	255	58.050685810999	27
3	255	58.050685810999	28
3	255	58.050685810999	29
3	269	60.000082254435	30
3	269	60.000082254435	31
3	269	60.000082254435	32
3	293	64.234315880821	33
3	293	64.234315880821	34
3	293	64.234315880821	35
3	307	67.668964267044	36
3	307	67.668964267044	37
3	307	67.668964267044	38
3	323	69.548109516619	39
3	323	69.548109516619	40
3	323	69.548109516619	41
3	343	71.415292966106	42
3	343	71.415292966106	43
3	343	71.415292966106	44
3	354	72.405364227499	45
3	354	72.405364227499	46
3	354	72.405364227499	47
3	368	74.184696008448	48
3	368	74.184696008448	49
3	368	74.184696008448	50
3	441	98.289224049752	51
3	441	98.289224049752	52
3	441	98.289224049752	53
3	474	106.456414732186	54
3	474	106.456414732186	55
3	474	106.456414732186	56
3	481	108.119915566418	57
3	481	108.119915566418	58
3	481	108.119915566418	59
3	503	113.657738511139	60
3	503	113.657738511139	61
3	503	113.657738511139	62
3	544	121.739237171178	63
3	544	121.739237171178	64
3	544	121.739237171178	65
3	555	123.570327947347	66
3	555	123.570327947347	67
3	555	123.570327947347	68
3	570	125.312759462575	69
3	570	125.312759462575	70
3	570	125.312759462575	71
3	591	130.8555141999	72
3	591	130.8555141999	73
3	591	130.8555141999	74
3	602	131.990280197279	75
3	602	131.990280197279	76
3	602	131.990280197279	77
3	648	143.914314916912	78
3	648	143.914314916912	79
3	648	143.914314916912	80
3	684	153.077913163664	81
3	684	153.077913163664	82
3	684	153.077913163664	83
3	702	154.624456551888	84
3	702	154.624456551888	85
3	702	154.624456551888	86
3	715	158.748890546489	87
3	715	158.748890546489	88
3	715	158.748890546489	89
3	759	165.625427447558	90
3	759	165.625427447558	91
3	759	165.625427447558	92
3	814	181.417644410578	93
3	814	181.417644410578	94
3	814	181.417644410578	95
3	841	189.18506664603	96
3	841	189.18506664603	97
3	841	189.18506664603	98
3	868	192.955506772842	99
3	868	192.955506772842	100
3	868	192.955506772842	101
3	895	197.94269905233	102
3	895	197.94269905233	103
3	895	197.94269905233	104
3	910	198.956759947599	105
3	910	198.956759947599	106
3	910	198.956759947599	107
3	924	201.270187663087	108
3	924	201.270187663087	109
3	924	201.270187663087	110
3	945	204.185397041499	111
3	945	204.185397041499	112
3	945	204.185397041499	113
3	986	211.569500319748	114
3	986	211.569500319748	115
3	986	211.569500319748	116
3	1000	213.413779012135	117
3	1000	213.413779012135	118
3	1000	213.413779012135	119
3	1046	229.704193928674	120
3	1046	229.704193928674	121
3	1046	229.704193928674	122
3	1079	233.909984125579	123
3	1079	233.909984125579	124
3	1079	233.909984125579	125
4	38	8.048099799902	0
4	38	8.048099799902	1
4	38	8.048099799902	2
4	67	12.560167581453	3
4	67	12.560167581453	4
4	67	12.560167581453	5
4	96	20.683434272207	6
4	96	20.683434272207	7
4	96	20.683434272207	8
4	108	22.331797856937	9
4	108	22.331797856937	10
4	108	22.331797856937	11
4	167	42.054155481059	12
4	167	42.054155481059	13
4	167	42.054155481059	14
4	188	44.593522185731	15
4	188	44.593522185731	16
4	188	44.593522185731	17
4	205	49.339461617133	18
4	205	49.339461617133	19
4	205	49.339461617133	20
4	225	52.785464449164	21
4	225	52.785464449164	22
4	225	52.785464449164	23
4	273	60.016443610746	24
4	273	60.016443610746	25
4	273	60.016443610746	26
4	297	64.249522939957	27
4	297	64.249522939957	28
4	297	64.249522939957	29
4	315	67.714586486701	30
4	315	67.714586486701	31
4	315	67.714586486701	32
4	347	71.431155422855	33
4	347	71.431155422855	34
4	347	71.431155422855	35
4	445	98.30243095434	36
4	445	98.30243095434	37
4	445	98.30243095434	38
4	508	113.674006359422	39
4	508	113.674006359422	40
4	508	113.674006359422	41
4	548	121.761785856375	42
4	548	121.761785856375	43
4	548	121.761785856375	44
4	559	123.583759682224	45
4	559	123.583759682224	46
4	559	123.583759682224	47
4	574	125.358910336738	48
4	574	125.358910336738	49
4	574	125.358910336738	50
4	606	132.008746342834	51
4	606	132.008746342834	52
4	606	132.008746342834	53
4	652	143.934091927315	54
4	652	143.934091927315	55
4	652	143.934091927315	56
4	722	158.780852356696	57
4	722	158.780852356696	58
4	722	158.780852356696	59
4	818	181.43145237152	60
4	818	181.43145237152	61
4	818	181.43145237152	62
4	872	192.96706375732	63
4	872	192.96706375732	64
4	872	192.96706375732	65
4	899	197.958301892221	66
4	899	197.958301892221	67
4	899	197.958301892221	68
4	914	198.984078557902	69
4	914	198.984078557902	70
4	914	198.984078557902	71
4	928	201.280520423993	72
4	928	201.280520423993	73
4	928	201.280520423993	74
4	952	204.21193679506	75
4	952	204.21193679506	76
4	952	204.21193679506	77
4	993	211.589834226469	78
4	993	211.589834226469	79
4	993	211.589834226469	80
4	1009	213.445806854952	81
4	1009	213.445806854952	82
4	1009	213.445806854952	83
4	1053	229.720916833266	84
4	1053	229.720916833266	85
4	1053	229.720916833266	86

