version 2
run General-4-20231008-09:22:15-19267
attr configname General
attr datetime 20231008-09:22:15
attr experiment General
attr inifile omnetpp.ini
attr iterationvars ""
attr iterationvarsf ""
attr measurement ""
attr network Network3
attr processid 19267
attr repetition 4
attr replication #4
attr resultdir results
attr runnumber 4
attr seedset 4
param Network3.node[*].transmissionTime "uniform(1s, 2s)"
param Network3.node[*].delayTime "uniform(0.01s, 0.2s)"
param Network3.node[*].processingTime exponential(0.01s)
param Network3.node[0].lossProbability 0
param Network3.node[1].lossProbability 0.75
param Network3.node[2].lossProbability 0.75
param Network3.node[3].lossProbability "0.75 / 2"
param Network3.node[4].lossProbability "0.75 / 2"
param Network3.node[6].lossProbability "0.75 * 2"
param Network3.node[7].lossProbability "0.75 * 2"
param Network3.node[5].lossProbability "0.75 * 3"

vector 0 Network3.node[0] txVector ETV
vector 1 Network3.node[1] txVector ETV
vector 2 Network3.node[4] txVector ETV
vector 3 Network3.node[2] txVector ETV
vector 4 Network3.node[3] txVector ETV
0	1	0.193735669288	0
0	1	0.193735669288	1
0	4	2.094357123985	2
0	4	2.094357123985	3
0	15	4.067041477808	4
0	15	4.067041477808	5
0	25	5.765461717188	6
0	25	5.765461717188	7
0	36	7.126958058603	8
0	36	7.126958058603	9
0	42	8.171118112203	10
0	42	8.171118112203	11
0	52	10.120095419154	12
0	52	10.120095419154	13
0	55	11.720838146206	14
0	55	11.720838146206	15
0	69	13.58672090123	16
0	69	13.58672090123	17
0	72	14.815483571417	18
0	72	14.815483571417	19
0	75	16.339887655494	20
0	75	16.339887655494	21
0	78	17.656003874415	22
0	78	17.656003874415	23
0	81	19.305808987623	24
0	81	19.305808987623	25
0	84	20.938472965887	26
0	84	20.938472965887	27
0	87	22.705877933573	28
0	87	22.705877933573	29
0	90	24.282874902399	30
0	90	24.282874902399	31
0	93	25.785407963596	32
0	93	25.785407963596	33
0	96	27.144174336843	34
0	96	27.144174336843	35
0	99	28.698915201394	36
0	99	28.698915201394	37
0	110	29.74632069647	38
0	110	29.74632069647	39
0	116	30.928766097563	40
0	116	30.928766097563	41
0	127	32.758954194995	42
0	127	32.758954194995	43
0	141	34.605676466754	44
0	141	34.605676466754	45
0	152	35.823106755657	46
0	152	35.823106755657	47
0	155	36.952293537944	48
0	155	36.952293537944	49
0	158	38.902648197874	50
0	158	38.902648197874	51
0	161	40.670406239029	52
0	161	40.670406239029	53
0	164	42.191080640458	54
0	164	42.191080640458	55
0	182	43.875103855661	56
0	182	43.875103855661	57
0	185	45.02383069663	58
0	185	45.02383069663	59
0	196	46.951239307101	60
0	196	46.951239307101	61
0	199	48.57016923038	62
0	199	48.57016923038	63
0	202	49.941275413304	64
0	202	49.941275413304	65
0	205	51.353747626224	66
0	205	51.353747626224	67
0	223	52.426030881859	68
0	223	52.426030881859	69
0	226	53.888360244145	70
0	226	53.888360244145	71
0	240	55.01237486528	72
0	240	55.01237486528	73
0	246	56.477864541968	74
0	246	56.477864541968	75
0	256	58.459074466645	76
0	256	58.459074466645	77
0	271	59.492952083859	78
0	271	59.492952083859	79
0	274	61.127521578146	80
0	274	61.127521578146	81
0	288	62.226849338895	82
0	288	62.226849338895	83
0	306	63.947301459655	84
0	306	63.947301459655	85
0	309	65.781082832411	86
0	309	65.781082832411	87
0	323	67.008063851779	88
0	323	67.008063851779	89
0	326	68.676176103454	90
0	326	68.676176103454	91
0	336	69.998751083545	92
0	336	69.998751083545	93
0	339	71.085666696231	94
0	339	71.085666696231	95
0	342	72.775451990233	96
0	342	72.775451990233	97
0	352	74.631635758716	98
0	352	74.631635758716	99
0	362	75.853216682949	100
0	362	75.853216682949	101
0	365	77.22855682803	102
0	365	77.22855682803	103
0	368	78.423504515706	104
0	368	78.423504515706	105
0	383	80.369332811484	106
0	383	80.369332811484	107
0	401	82.11658125456	108
0	401	82.11658125456	109
0	404	83.160503762695	110
0	404	83.160503762695	111
0	407	85.019224612429	112
0	407	85.019224612429	113
0	410	86.482074370529	114
0	410	86.482074370529	115
0	425	87.75243985226	116
0	425	87.75243985226	117
0	428	89.298845684776	118
0	428	89.298845684776	119
0	431	91.253064778555	120
0	431	91.253064778555	121
0	434	92.361055971743	122
0	434	92.361055971743	123
0	440	93.96085346133	124
0	440	93.96085346133	125
0	451	95.471759584188	126
0	451	95.471759584188	127
0	457	97.208870459735	128
0	457	97.208870459735	129
0	460	98.320744776088	130
0	460	98.320744776088	131
0	474	100.186868961821	132
0	474	100.186868961821	133
0	477	101.570448971274	134
0	477	101.570448971274	135
0	492	102.92018006897	136
0	492	102.92018006897	137
0	495	104.906404793415	138
0	495	104.906404793415	139
0	498	106.226769446082	140
0	498	106.226769446082	141
0	501	108.101831793006	142
0	501	108.101831793006	143
0	504	109.734122332338	144
0	504	109.734122332338	145
0	507	111.622824915139	146
0	507	111.622824915139	147
0	510	113.196108519252	148
0	510	113.196108519252	149
0	521	114.533288350714	150
0	521	114.533288350714	151
0	527	115.940044176917	152
0	527	115.940044176917	153
0	537	117.536547453761	154
0	537	117.536547453761	155
0	543	118.605516887888	156
0	543	118.605516887888	157
0	549	119.609389525525	158
0	549	119.609389525525	159
0	563	120.874305248646	160
0	563	120.874305248646	161
0	566	121.907364716208	162
0	566	121.907364716208	163
0	584	123.335519696739	164
0	584	123.335519696739	165
0	587	125.065512688984	166
0	587	125.065512688984	167
0	590	126.178869594275	168
0	590	126.178869594275	169
0	593	127.750694287862	170
0	593	127.750694287862	171
0	596	129.600759423259	172
0	596	129.600759423259	173
0	603	131.036494161622	174
0	603	131.036494161622	175
0	606	132.681942508943	176
0	606	132.681942508943	177
0	612	134.630000315994	178
0	612	134.630000315994	179
0	615	136.030272014827	180
0	615	136.030272014827	181
0	618	137.031627886152	182
0	618	137.031627886152	183
0	621	138.827812266924	184
0	621	138.827812266924	185
0	624	140.345620372022	186
0	624	140.345620372022	187
0	638	142.052820215855	188
0	638	142.052820215855	189
0	649	143.30296212264	190
0	649	143.30296212264	191
0	652	145.048261330851	192
0	652	145.048261330851	193
0	670	146.896487661793	194
0	670	146.896487661793	195
0	673	148.312129987094	196
0	673	148.312129987094	197
0	676	149.983711102668	198
0	676	149.983711102668	199
0	683	151.84120433863	200
0	683	151.84120433863	201
0	686	152.919075542518	202
0	686	152.919075542518	203
0	696	154.616126981487	204
0	696	154.616126981487	205
0	714	155.76385398993	206
0	714	155.76385398993	207
0	725	156.785323874715	208
0	725	156.785323874715	209
0	728	158.315657686831	210
0	728	158.315657686831	211
0	738	159.818212206864	212
0	738	159.818212206864	213
0	753	161.47296815288	214
0	753	161.47296815288	215
0	756	162.885435032581	216
0	756	162.885435032581	217
0	762	164.266074920927	218
0	762	164.266074920927	219
0	769	165.575565896618	220
0	769	165.575565896618	221
0	779	167.244003478593	222
0	779	167.244003478593	223
0	782	168.567724492091	224
0	782	168.567724492091	225
0	800	170.102828761718	226
0	800	170.102828761718	227
0	803	171.427250349351	228
0	803	171.427250349351	229
0	806	172.99210745461	230
0	806	172.99210745461	231
0	809	174.953782047533	232
0	809	174.953782047533	233
0	812	176.569904035811	234
0	812	176.569904035811	235
0	815	177.677788258918	236
0	815	177.677788258918	237
0	818	179.251570132716	238
0	818	179.251570132716	239
0	821	181.085687474037	240
0	821	181.085687474037	241
0	824	183.000949238349	242
0	824	183.000949238349	243
0	827	184.701756470759	244
0	827	184.701756470759	245
0	837	185.933455999397	246
0	837	185.933455999397	247
0	855	187.585847474091	248
0	855	187.585847474091	249
0	869	189.447170806505	250
0	869	189.447170806505	251
0	880	191.34119652134	252
0	880	191.34119652134	253
0	891	193.048343143581	254
0	891	193.048343143581	255
0	894	194.169054228036	256
0	894	194.169054228036	257
0	904	195.473395756601	258
0	904	195.473395756601	259
0	911	197.158324603147	260
0	911	197.158324603147	261
0	918	198.74777097969	262
0	918	198.74777097969	263
0	932	199.778727883395	264
0	932	199.778727883395	265
0	947	201.762693594132	266
0	947	201.762693594132	267
0	950	203.384276429346	268
0	950	203.384276429346	269
0	960	204.866374277897	270
0	960	204.866374277897	271
0	963	206.751832181277	272
0	963	206.751832181277	273
0	966	208.339570260529	274
0	966	208.339570260529	275
0	976	210.175627156083	276
0	976	210.175627156083	277
0	990	211.79625064639	278
0	990	211.79625064639	279
0	993	213.37392119031	280
0	993	213.37392119031	281
0	1007	214.674473438799	282
0	1007	214.674473438799	283
0	1010	216.200901584854	284
0	1010	216.200901584854	285
0	1028	218.181761220019	286
0	1028	218.181761220019	287
0	1031	219.451666999995	288
0	1031	219.451666999995	289
0	1034	221.44745599913	290
0	1034	221.44745599913	291
0	1052	222.510207811059	292
0	1052	222.510207811059	293
0	1067	223.517596907835	294
0	1067	223.517596907835	295
0	1085	225.204376156829	296
0	1085	225.204376156829	297
0	1092	226.591874716026	298
0	1092	226.591874716026	299
0	1098	227.728048969214	300
0	1098	227.728048969214	301
0	1109	229.312811300778	302
0	1109	229.312811300778	303
0	1112	230.895331381043	304
0	1112	230.895331381043	305
0	1115	231.973240854838	306
0	1115	231.973240854838	307
0	1118	233.314038394173	308
0	1118	233.314038394173	309
0	1128	234.42204942104	310
0	1128	234.42204942104	311
0	1138	236.412717237757	312
0	1138	236.412717237757	313
0	1149	237.900487178159	314
0	1149	237.900487178159	315
0	1152	238.935854934542	316
0	1152	238.935854934542	317
1	7	2.116903330722	0
1	7	2.116903330722	1
1	7	2.116903330722	2
1	28	5.784728460164	3
1	28	5.784728460164	4
1	28	5.784728460164	5
1	65	11.794547612372	6
1	65	11.794547612372	7
1	65	11.794547612372	8
1	102	28.735423395388	9
1	102	28.735423395388	10
1	102	28.735423395388	11
1	119	30.94415794229	12
1	119	30.94415794229	13
1	119	30.94415794229	14
1	131	32.782175797147	15
1	131	32.782175797147	16
1	131	32.782175797147	17
1	144	34.632127975017	18
1	144	34.632127975017	19
1	144	34.632127975017	20
1	167	42.208309566573	21
1	167	42.208309566573	22
1	167	42.208309566573	23
1	188	45.035783645891	24
1	188	45.035783645891	25
1	188	45.035783645891	26
1	209	51.365894905322	27
1	209	51.365894905322	28
1	209	51.365894905322	29
1	236	53.966393524497	30
1	236	53.966393524497	31
1	236	53.966393524497	32
1	259	58.479788854316	33
1	259	58.479788854316	34
1	259	58.479788854316	35
1	278	61.147509942088	36
1	278	61.147509942088	37
1	278	61.147509942088	38
1	292	62.24487731744	39
1	292	62.24487731744	40
1	292	62.24487731744	41
1	312	65.805953779824	42
1	312	65.805953779824	43
1	312	65.805953779824	44
1	356	74.645677845156	45
1	356	74.645677845156	46
1	356	74.645677845156	47
1	371	78.439394643462	48
1	371	78.439394643462	49
1	371	78.439394643462	50
1	386	80.380209113159	51
1	386	80.380209113159	52
1	386	80.380209113159	53
1	413	86.49338945227	54
1	413	86.49338945227	55
1	413	86.49338945227	56
1	443	93.985103236989	57
1	443	93.985103236989	58
1	443	93.985103236989	59
1	464	98.339354094799	60
1	464	98.339354094799	61
1	464	98.339354094799	62
1	480	101.582476499739	63
1	480	101.582476499739	64
1	480	101.582476499739	65
1	513	113.215126189758	66
1	513	113.215126189758	67
1	513	113.215126189758	68
1	559	119.654166024577	69
1	559	119.654166024577	70
1	559	119.654166024577	71
1	569	121.924413009035	72
1	569	121.924413009035	73
1	569	121.924413009035	74
1	599	129.611354005476	75
1	599	129.611354005476	76
1	599	129.611354005476	77
1	628	140.362854543963	78
1	628	140.362854543963	79
1	628	140.362854543963	80
1	641	142.06853440298	81
1	641	142.06853440298	82
1	641	142.06853440298	83
1	662	145.131178501776	84
1	662	145.131178501776	85
1	662	145.131178501776	86
1	679	149.999388037288	87
1	679	149.999388037288	88
1	679	149.999388037288	89
1	699	154.626763081311	90
1	699	154.626763081311	91
1	699	154.626763081311	92
1	717	155.781126134548	93
1	717	155.781126134548	94
1	717	155.781126134548	95
1	741	159.832884885862	96
1	741	159.832884885862	97
1	741	159.832884885862	98
1	765	164.280026283887	99
1	765	164.280026283887	100
1	765	164.280026283887	101
1	792	168.650785420236	102
1	792	168.650785420236	103
1	792	168.650785420236	104
1	847	186.002658536125	105
1	847	186.002658536125	106
1	847	186.002658536125	107
1	858	187.598305880867	108
1	858	187.598305880867	109
1	858	187.598305880867	110
1	872	189.462202439355	111
1	872	189.462202439355	112
1	872	189.462202439355	113
1	883	191.355406679409	114
1	883	191.355406679409	115
1	883	191.355406679409	116
1	907	195.4994692349	117
1	907	195.4994692349	118
1	907	195.4994692349	119
1	914	197.178569724488	120
1	914	197.178569724488	121
1	914	197.178569724488	122
1	921	198.768697410068	123
1	921	198.768697410068	124
1	921	198.768697410068	125
1	935	199.794358665051	126
1	935	199.794358665051	127
1	935	199.794358665051	128
1	986	210.238797304848	129
1	986	210.238797304848	130
1	986	210.238797304848	131
1	1003	213.466162265009	132
1	1003	213.466162265009	133
1	1003	213.466162265009	134
1	1020	216.262162778265	135
1	1020	216.262162778265	136
1	1020	216.262162778265	137
1	1038	221.462178069593	138
1	1038	221.462178069593	139
1	1038	221.462178069593	140
1	1055	222.526051808965	141
1	1055	222.526051808965	142
1	1055	222.526051808965	143
1	1071	223.542256357137	144
1	1071	223.542256357137	145
1	1071	223.542256357137	146
1	1088	225.233002002306	147
1	1088	225.233002002306	148
1	1088	225.233002002306	149
1	1101	227.750861389231	150
1	1101	227.750861389231	151
1	1101	227.750861389231	152
1	1121	233.345499385191	153
1	1121	233.345499385191	154
1	1121	233.345499385191	155
1	1141	236.459877604796	156
1	1141	236.459877604796	157
1	1141	236.459877604796	158
2	11	2.129337934963	0
2	11	2.129337934963	1
2	11	2.129337934963	2
2	21	4.092798809266	3
2	21	4.092798809266	4
2	21	4.092798809266	5
2	32	5.811438814465	6
2	32	5.811438814465	7
2	32	5.811438814465	8
2	48	8.222024538507	9
2	48	8.222024538507	10
2	48	8.222024538507	11
2	61	11.766513944182	12
2	61	11.766513944182	13
2	61	11.766513944182	14
2	106	28.762078449496	15
2	106	28.762078449496	16
2	106	28.762078449496	17
2	134	32.791844629384	18
2	134	32.791844629384	19
2	134	32.791844629384	20
2	148	34.642792059057	21
2	148	34.642792059057	22
2	148	34.642792059057	23
2	175	42.236096149196	24
2	175	42.236096149196	25
2	175	42.236096149196	26
2	212	51.374645421178	27
2	212	51.374645421178	28
2	212	51.374645421178	29
2	232	53.927605583176	30
2	232	53.927605583176	31
2	232	53.927605583176	32
2	252	56.49890710874	33
2	252	56.49890710874	34
2	252	56.49890710874	35
2	264	58.500771729675	36
2	264	58.500771729675	37
2	264	58.500771729675	38
2	281	61.156189020269	39
2	281	61.156189020269	40
2	281	61.156189020269	41
2	298	62.2619224716	42
2	298	62.2619224716	43
2	298	62.2619224716	44
2	319	65.820107819488	45
2	319	65.820107819488	46
2	319	65.820107819488	47
2	332	68.751771258407	48
2	332	68.751771258407	49
2	332	68.751771258407	50
2	348	72.831838863687	51
2	348	72.831838863687	52
2	348	72.831838863687	53
2	375	78.458857307753	54
2	375	78.458857307753	55
2	375	78.458857307753	56
2	390	80.392381115116	57
2	390	80.392381115116	58
2	390	80.392381115116	59
2	417	86.506064548699	60
2	417	86.506064548699	61
2	417	86.506064548699	62
2	447	94.008440266336	63
2	447	94.008440266336	64
2	447	94.008440266336	65
2	485	101.5968214425	66
2	485	101.5968214425	67
2	485	101.5968214425	68
2	533	115.967534252671	69
2	533	115.967534252671	70
2	533	115.967534252671	71
2	555	119.637414206092	72
2	555	119.637414206092	73
2	555	119.637414206092	74
2	574	121.936874133199	75
2	574	121.936874133199	76
2	574	121.936874133199	77
2	634	140.39005895992	78
2	634	140.39005895992	79
2	634	140.39005895992	80
2	658	145.097248981231	81
2	658	145.097248981231	82
2	658	145.097248981231	83
2	692	152.944806809966	84
2	692	152.944806809966	85
2	692	152.944806809966	86
2	710	154.650663432071	87
2	710	154.650663432071	88
2	710	154.650663432071	89
2	734	158.342846756915	90
2	734	158.342846756915	91
2	734	158.342846756915	92
2	746	159.854761080975	93
2	746	159.854761080975	94
2	746	159.854761080975	95
2	775	165.601407977543	96
2	775	165.601407977543	97
2	775	165.601407977543	98
2	788	168.628965117407	99
2	788	168.628965117407	100
2	788	168.628965117407	101
2	833	184.733702035449	102
2	833	184.733702035449	103
2	833	184.733702035449	104
2	843	185.991585294866	105
2	843	185.991585294866	106
2	843	185.991585294866	107
2	862	187.608778621413	108
2	862	187.608778621413	109
2	862	187.608778621413	110
2	900	194.214246829664	111
2	900	194.214246829664	112
2	900	194.214246829664	113
2	925	198.783490191476	114
2	925	198.783490191476	115
2	925	198.783490191476	116
2	940	199.811181441376	117
2	940	199.811181441376	118
2	940	199.811181441376	119
2	956	203.411112215488	120
2	956	203.411112215488	121
2	956	203.411112215488	122
2	972	208.383066520815	123
2	972	208.383066520815	124
2	972	208.383066520815	125
2	982	210.206682847575	126
2	982	210.206682847575	127
2	982	210.206682847575	128
2	999	213.42074161363	129
2	999	213.42074161363	130
2	999	213.42074161363	131
2	1016	216.24609156219	132
2	1016	216.24609156219	133
2	1016	216.24609156219	134
2	1045	221.483040634207	135
2	1045	221.483040634207	136
2	1045	221.483040634207	137
2	1063	222.56317801056	138
2	1063	222.56317801056	139
2	1063	222.56317801056	140
2	1081	223.566741638139	141
2	1081	223.566741638139	142
2	1081	223.566741638139	143
2	1134	234.452458766404	144
2	1134	234.452458766404	145
2	1134	234.452458766404	146
2	1158	238.971108077799	147
2	1158	238.971108077799	148
2	1158	238.971108077799	149
3	18	4.082747084224	0
3	18	4.082747084224	1
3	39	7.153621427736	2
3	39	7.153621427736	3
3	45	8.210123032219	4
3	45	8.210123032219	5
3	58	11.736088133039	6
3	58	11.736088133039	7
3	113	29.785709307209	8
3	113	29.785709307209	9
3	130	32.78096001479	10
3	130	32.78096001479	11
3	168	42.209558585735	12
3	168	42.209558585735	13
3	208	51.363776935088	14
3	208	51.363776935088	15
3	229	53.912352503581	16
3	229	53.912352503581	17
3	243	55.022479679385	18
3	243	55.022479679385	19
3	249	56.488746106827	20
3	249	56.488746106827	21
3	277	61.140918869091	22
3	277	61.140918869091	23
3	291	62.238845621524	24
3	291	62.238845621524	25
3	313	65.806578433986	26
3	313	65.806578433986	27
3	329	68.707138148342	28
3	329	68.707138148342	29
3	345	72.790647518925	30
3	345	72.790647518925	31
3	355	74.644603725863	32
3	355	74.644603725863	33
3	398	80.424108464947	34
3	398	80.424108464947	35
3	437	92.373341445169	36
3	437	92.373341445169	37
3	454	95.492544570529	38
3	454	95.492544570529	39
3	463	98.334022230748	40
3	463	98.334022230748	41
3	524	114.545439050076	42
3	524	114.545439050076	43
3	530	115.955938483865	44
3	530	115.955938483865	45
3	540	117.547255269469	46
3	540	117.547255269469	47
3	546	118.618328215522	48
3	546	118.618328215522	49
3	552	119.624656291212	50
3	552	119.624656291212	51
3	570	121.927893027001	52
3	570	121.927893027001	53
3	609	132.693125513313	54
3	609	132.693125513313	55
3	627	140.355895115928	56
3	627	140.355895115928	57
3	655	145.063333781961	58
3	655	145.063333781961	59
3	689	152.931881705854	60
3	689	152.931881705854	61
3	700	154.636596892417	62
3	700	154.636596892417	63
3	731	158.328950922759	64
3	731	158.328950922759	65
3	759	162.932623017346	66
3	759	162.932623017346	67
3	772	165.588964061775	68
3	772	165.588964061775	69
3	785	168.585892918164	70
3	785	168.585892918164	71
3	830	184.713045392607	72
3	830	184.713045392607	73
3	840	185.962015259396	74
3	840	185.962015259396	75
3	866	187.625396812226	76
3	866	187.625396812226	77
3	897	194.189754769355	78
3	897	194.189754769355	79
3	926	198.787609312323	80
3	926	198.787609312323	81
3	953	203.394991764391	82
3	953	203.394991764391	83
3	969	208.356699019681	84
3	969	208.356699019681	85
3	979	210.194994262011	86
3	979	210.194994262011	87
3	996	213.395523916804	88
3	996	213.395523916804	89
3	1013	216.213742388381	90
3	1013	216.213742388381	91
3	1037	221.458747680512	92
3	1037	221.458747680512	93
3	1070	223.539718003966	94
3	1070	223.539718003966	95
3	1095	226.607967251459	96
3	1095	226.607967251459	97
3	1122	233.351845256688	98
3	1122	233.351845256688	99
3	1131	234.436034908538	100
3	1131	234.436034908538	101
3	1155	238.952830345747	102
3	1155	238.952830345747	103
4	123	30.977652203557	0
4	123	30.977652203557	1
4	123	30.977652203557	2
4	174	42.233762615026	3
4	174	42.233762615026	4
4	174	42.233762615026	5
4	192	45.052182010043	6
4	192	45.052182010043	7
4	192	45.052182010043	8
4	219	51.387248251135	9
4	219	51.387248251135	10
4	219	51.387248251135	11
4	263	58.495611009112	12
4	263	58.495611009112	13
4	263	58.495611009112	14
4	302	62.277040266648	15
4	302	62.277040266648	16
4	302	62.277040266648	17
4	379	78.476482023131	18
4	379	78.476482023131	19
4	379	78.476482023131	20
4	391	80.395002936115	21
4	391	80.395002936115	22
4	391	80.395002936115	23
4	418	86.511671180134	24
4	418	86.511671180134	25
4	418	86.511671180134	26
4	470	98.350689323797	27
4	470	98.350689323797	28
4	470	98.350689323797	29
4	484	101.594281672893	30
4	484	101.594281672893	31
4	484	101.594281672893	32
4	517	113.226563416794	33
4	517	113.226563416794	34
4	517	113.226563416794	35
4	580	121.968060293603	36
4	580	121.968060293603	37
4	580	121.968060293603	38
4	645	142.079840615831	39
4	645	142.079840615831	40
4	645	142.079840615831	41
4	666	145.142945924078	42
4	666	145.142945924078	43
4	666	145.142945924078	44
4	704	154.638140879585	45
4	704	154.638140879585	46
4	704	154.638140879585	47
4	721	155.809616323917	48
4	721	155.809616323917	49
4	721	155.809616323917	50
4	745	159.849655129704	51
4	745	159.849655129704	52
4	745	159.849655129704	53
4	796	168.689104140137	54
4	796	168.689104140137	55
4	796	168.689104140137	56
4	851	186.012816370122	57
4	851	186.012816370122	58
4	851	186.012816370122	59
4	876	189.475307202299	60
4	876	189.475307202299	61
4	876	189.475307202299	62
4	887	191.368003766476	63
4	887	191.368003766476	64
4	887	191.368003766476	65
4	939	199.806865299161	66
4	939	199.806865299161	67
4	939	199.806865299161	68
4	1024	216.280969295568	69
4	1024	216.280969295568	70
4	1024	216.280969295568	71
4	1044	221.480738122865	72
4	1044	221.480738122865	73
4	1044	221.480738122865	74
4	1059	222.537481141779	75
4	1059	222.537481141779	76
4	1059	222.537481141779	77
4	1077	223.554193359879	78
4	1077	223.554193359879	79
4	1077	223.554193359879	80
4	1105	227.770382986904	81
4	1105	227.770382986904	82
4	1105	227.770382986904	83
4	1145	236.484071088469	84
4	1145	236.484071088469	85
4	1145	236.484071088469	86

