version 2
run General-1-20231008-09:22:15-19267
attr configname General
attr datetime 20231008-09:22:15
attr experiment General
attr inifile omnetpp.ini
attr iterationvars ""
attr iterationvarsf ""
attr measurement ""
attr network Network3
attr processid 19267
attr repetition 1
attr replication #1
attr resultdir results
attr runnumber 1
attr seedset 1
param Network3.node[*].transmissionTime "uniform(1s, 2s)"
param Network3.node[*].delayTime "uniform(0.01s, 0.2s)"
param Network3.node[*].processingTime exponential(0.01s)
param Network3.node[0].lossProbability 0
param Network3.node[1].lossProbability 0.75
param Network3.node[2].lossProbability 0.75
param Network3.node[3].lossProbability "0.75 / 2"
param Network3.node[4].lossProbability "0.75 / 2"
param Network3.node[6].lossProbability "0.75 * 2"
param Network3.node[7].lossProbability "0.75 * 2"
param Network3.node[5].lossProbability "0.75 * 3"

vector 0 Network3.node[0] txVector ETV
vector 1 Network3.node[2] txVector ETV
vector 2 Network3.node[1] txVector ETV
vector 3 Network3.node[3] txVector ETV
vector 4 Network3.node[4] txVector ETV
0	1	0.089234179703	0
0	1	0.089234179703	1
0	7	2.086418987836	2
0	7	2.086418987836	3
0	10	4.085459503231	4
0	10	4.085459503231	5
0	13	5.17779809877	6
0	13	5.17779809877	7
0	16	6.565708838987	8
0	16	6.565708838987	9
0	34	7.962476307644	10
0	34	7.962476307644	11
0	37	9.521166134976	12
0	37	9.521166134976	13
0	47	11.460293929909	14
0	47	11.460293929909	15
0	61	12.978446478142	16
0	61	12.978446478142	17
0	64	14.571511994932	18
0	64	14.571511994932	19
0	67	16.529401526904	20
0	67	16.529401526904	21
0	70	17.726952420432	22
0	70	17.726952420432	23
0	73	19.042468054337	24
0	73	19.042468054337	25
0	88	20.825782526867	26
0	88	20.825782526867	27
0	91	21.929008538952	28
0	91	21.929008538952	29
0	98	23.398247063743	30
0	98	23.398247063743	31
0	101	24.528275632883	32
0	101	24.528275632883	33
0	107	25.611898638193	34
0	107	25.611898638193	35
0	110	26.910828749069	36
0	110	26.910828749069	37
0	113	27.964191293462	38
0	113	27.964191293462	39
0	123	29.578129611795	40
0	123	29.578129611795	41
0	126	31.528067745387	42
0	126	31.528067745387	43
0	129	32.942247011585	44
0	129	32.942247011585	45
0	132	34.707732118785	46
0	132	34.707732118785	47
0	135	36.371526767619	48
0	135	36.371526767619	49
0	146	38.163930346843	50
0	146	38.163930346843	51
0	149	39.971321637396	52
0	149	39.971321637396	53
0	152	41.509746332074	54
0	152	41.509746332074	55
0	155	43.43725491071	56
0	155	43.43725491071	57
0	170	45.00826347282	58
0	170	45.00826347282	59
0	188	46.904149688201	60
0	188	46.904149688201	61
0	191	48.312286492323	62
0	191	48.312286492323	63
0	202	50.075206559503	64
0	202	50.075206559503	65
0	220	51.602264665419	66
0	220	51.602264665419	67
0	223	52.774605176065	68
0	223	52.774605176065	69
0	230	54.517370003162	70
0	230	54.517370003162	71
0	236	56.272833055005	72
0	236	56.272833055005	73
0	239	57.984357811863	74
0	239	57.984357811863	75
0	242	59.156636168834	76
0	242	59.156636168834	77
0	245	60.182847156076	78
0	245	60.182847156076	79
0	248	61.692657434268	80
0	248	61.692657434268	81
0	251	63.552685384758	82
0	251	63.552685384758	83
0	257	64.784443848187	84
0	257	64.784443848187	85
0	260	66.018066375868	86
0	260	66.018066375868	87
0	266	67.603825643777	88
0	266	67.603825643777	89
0	281	68.622472933845	90
0	281	68.622472933845	91
0	284	70.050855343349	92
0	284	70.050855343349	93
0	287	71.110773038238	94
0	287	71.110773038238	95
0	293	73.047963364169	96
0	293	73.047963364169	97
0	296	74.664292306991	98
0	296	74.664292306991	99
0	299	76.224009286266	100
0	299	76.224009286266	101
0	302	77.353778899068	102
0	302	77.353778899068	103
0	305	79.321055228708	104
0	305	79.321055228708	105
0	308	80.595700381908	106
0	308	80.595700381908	107
0	311	81.848026128604	108
0	311	81.848026128604	109
0	329	83.00964465819	110
0	329	83.00964465819	111
0	332	84.768993457432	112
0	332	84.768993457432	113
0	335	85.839015602253	114
0	335	85.839015602253	115
0	341	87.652891964072	116
0	341	87.652891964072	117
0	356	89.184718410371	118
0	356	89.184718410371	119
0	363	90.251053243064	120
0	363	90.251053243064	121
0	370	91.346472487439	122
0	370	91.346472487439	123
0	373	93.151227052909	124
0	373	93.151227052909	125
0	376	95.082239981395	126
0	376	95.082239981395	127
0	383	96.606910287988	128
0	383	96.606910287988	129
0	386	98.334921928242	130
0	386	98.334921928242	131
0	396	100.107099957651	132
0	396	100.107099957651	133
0	407	101.723878312277	134
0	407	101.723878312277	135
0	410	103.650229023423	136
0	410	103.650229023423	137
0	413	105.136219693467	138
0	413	105.136219693467	139
0	416	106.160321318664	140
0	416	106.160321318664	141
0	427	108.086502745634	142
0	427	108.086502745634	143
0	430	109.165022715114	144
0	430	109.165022715114	145
0	433	110.670684884887	146
0	433	110.670684884887	147
0	451	112.130230165671	148
0	451	112.130230165671	149
0	469	113.484814852129	150
0	469	113.484814852129	151
0	472	115.434858159281	152
0	472	115.434858159281	153
0	483	116.450391433088	154
0	483	116.450391433088	155
0	486	118.265491490371	156
0	486	118.265491490371	157
0	492	119.449501695696	158
0	492	119.449501695696	159
0	495	120.503410970213	160
0	495	120.503410970213	161
0	498	121.553121985288	162
0	498	121.553121985288	163
0	501	123.471723763391	164
0	501	123.471723763391	165
0	516	125.339241218174	166
0	516	125.339241218174	167
0	519	126.624817495354	168
0	519	126.624817495354	169
0	533	128.322326991128	170
0	533	128.322326991128	171
0	536	129.789704295926	172
0	536	129.789704295926	173
0	539	131.171807046633	174
0	539	131.171807046633	175
0	542	132.19497577695	176
0	542	132.19497577695	177
0	545	133.512359727992	178
0	545	133.512359727992	179
0	548	135.073818686771	180
0	548	135.073818686771	181
0	551	137.04762076808	182
0	551	137.04762076808	183
0	554	138.73230867612	184
0	554	138.73230867612	185
0	557	140.159009687955	186
0	557	140.159009687955	187
0	575	141.378875986094	188
0	575	141.378875986094	189
0	578	142.563990288766	190
0	578	142.563990288766	191
0	581	144.297132820243	192
0	581	144.297132820243	193
0	592	145.740940803548	194
0	592	145.740940803548	195
0	595	147.118864980179	196
0	595	147.118864980179	197
0	610	148.357075895301	198
0	610	148.357075895301	199
0	625	149.823955917383	200
0	625	149.823955917383	201
0	628	151.042638820714	202
0	628	151.042638820714	203
0	631	152.235601554044	204
0	631	152.235601554044	205
0	634	153.568885859453	206
0	634	153.568885859453	207
0	637	154.77708029852	208
0	637	154.77708029852	209
0	648	156.450227577591	210
0	648	156.450227577591	211
0	659	157.966084589136	212
0	659	157.966084589136	213
0	665	159.476445582115	214
0	665	159.476445582115	215
0	671	160.52474559413	216
0	671	160.52474559413	217
0	674	161.835073432305	218
0	674	161.835073432305	219
0	680	163.707995811596	220
0	680	163.707995811596	221
0	690	165.574604082738	222
0	690	165.574604082738	223
0	693	167.225908415743	224
0	693	167.225908415743	225
0	696	168.985160416576	226
0	696	168.985160416576	227
0	699	170.784775679118	228
0	699	170.784775679118	229
0	706	172.370134892293	230
0	706	172.370134892293	231
0	709	173.627204190592	232
0	709	173.627204190592	233
0	723	175.299538750087	234
0	723	175.299538750087	235
0	738	176.659099054176	236
0	738	176.659099054176	237
0	741	177.794526957094	238
0	741	177.794526957094	239
0	744	179.681835010068	240
0	744	179.681835010068	241
0	747	180.842230192039	242
0	747	180.842230192039	243
0	750	182.759728489097	244
0	750	182.759728489097	245
0	760	184.126271586286	246
0	760	184.126271586286	247
0	763	185.568175864525	248
0	763	185.568175864525	249
0	770	186.83805715584	250
0	770	186.83805715584	251
0	776	188.100230234794	252
0	776	188.100230234794	253
0	787	189.157159668745	254
0	787	189.157159668745	255
0	790	190.360833997258	256
0	790	190.360833997258	257
0	793	192.204674428913	258
0	793	192.204674428913	259
0	811	193.707670961392	260
0	811	193.707670961392	261
0	814	194.790526423023	262
0	814	194.790526423023	263
0	817	196.057598438698	264
0	817	196.057598438698	265
0	820	197.514576346033	266
0	820	197.514576346033	267
0	835	198.623595109095	268
0	835	198.623595109095	269
0	846	200.441363497988	270
0	846	200.441363497988	271
0	849	201.508088491277	272
0	849	201.508088491277	273
0	852	203.08160947019	274
0	852	203.08160947019	275
0	870	204.109392812361	276
0	870	204.109392812361	277
0	888	205.511785328274	278
0	888	205.511785328274	279
0	902	207.46297911287	280
0	902	207.46297911287	281
0	912	209.085475011381	282
0	912	209.085475011381	283
0	930	210.994768212435	284
0	930	210.994768212435	285
0	940	212.305355465391	286
0	940	212.305355465391	287
0	943	214.216128301227	288
0	943	214.216128301227	289
0	946	216.137146162919	290
0	946	216.137146162919	291
0	952	217.649438860479	292
0	952	217.649438860479	293
0	958	219.366317523529	294
0	958	219.366317523529	295
0	961	220.888368774324	296
0	961	220.888368774324	297
0	976	222.775289234125	298
0	976	222.775289234125	299
0	979	224.352045171081	300
0	979	224.352045171081	301
0	989	226.171649828671	302
0	989	226.171649828671	303
0	1003	227.231098904392	304
0	1003	227.231098904392	305
0	1006	228.587508992642	306
0	1006	228.587508992642	307
0	1017	229.762274868671	308
0	1017	229.762274868671	309
0	1023	230.922691257322	310
0	1023	230.922691257322	311
0	1026	232.321844655206	312
0	1026	232.321844655206	313
0	1029	233.55065832811	314
0	1029	233.55065832811	315
0	1035	234.689372948255	316
0	1035	234.689372948255	317
0	1045	236.272811479285	318
0	1045	236.272811479285	319
0	1056	237.577022304875	320
0	1056	237.577022304875	321
0	1074	239.028755453299	322
0	1074	239.028755453299	323
1	4	0.099235323579	0
1	4	0.099235323579	1
1	19	6.581142232773	2
1	19	6.581142232773	3
1	40	9.547297811889	4
1	40	9.547297811889	5
1	50	11.487963442095	6
1	50	11.487963442095	7
1	104	24.540653486485	8
1	104	24.540653486485	9
1	116	27.983090350869	10
1	116	27.983090350869	11
1	185	45.051741948863	12
1	185	45.051741948863	13
1	205	50.097552340977	14
1	205	50.097552340977	15
1	233	54.529709120219	16
1	233	54.529709120219	17
1	254	63.581138942682	18
1	254	63.581138942682	19
1	263	66.033477962031	20
1	263	66.033477962031	21
1	290	71.121910260046	22
1	290	71.121910260046	23
1	314	81.866733542205	24
1	314	81.866733542205	25
1	338	85.857428627813	26
1	338	85.857428627813	27
1	389	98.346730028593	28
1	389	98.346730028593	29
1	436	110.684752322447	30
1	436	110.684752322447	31
1	454	112.161335937479	32
1	454	112.161335937479	33
1	489	118.284379217275	34
1	489	118.284379217275	35
1	522	126.635189008814	36
1	522	126.635189008814	37
1	569	140.196323725456	38
1	569	140.196323725456	39
1	662	157.990008833041	40
1	662	157.990008833041	41
1	668	159.501830532954	42
1	668	159.501830532954	43
1	677	161.849413950397	44
1	677	161.849413950397	45
1	683	163.720230640257	46
1	683	163.720230640257	47
1	712	173.653129441885	48
1	712	173.653129441885	49
1	753	182.786088147939	50
1	753	182.786088147939	51
1	773	186.873457153149	52
1	773	186.873457153149	53
1	796	192.221831250358	54
1	796	192.221831250358	55
1	855	203.096632267271	56
1	855	203.096632267271	57
1	873	204.11977046494	58
1	873	204.11977046494	59
1	891	205.537680060657	60
1	891	205.537680060657	61
1	905	207.481077256689	62
1	905	207.481077256689	63
1	927	209.125571843371	64
1	927	209.125571843371	65
1	933	211.05262794616	66
1	933	211.05262794616	67
1	949	216.165628594562	68
1	949	216.165628594562	69
1	955	217.669938612913	70
1	955	217.669938612913	71
1	982	224.386862988577	72
1	982	224.386862988577	73
1	992	226.190191071603	74
1	992	226.190191071603	75
1	1020	229.780813172217	76
1	1020	229.780813172217	77
1	1032	233.567977540597	78
1	1032	233.567977540597	79
1	1038	234.75667449327	80
1	1038	234.75667449327	81
1	1067	237.61574853991	82
1	1067	237.61574853991	83
2	20	6.58344843669	0
2	20	6.58344843669	1
2	20	6.58344843669	2
2	51	11.49032023468	3
2	51	11.49032023468	4
2	51	11.49032023468	5
2	76	19.057787505882	6
2	76	19.057787505882	7
2	76	19.057787505882	8
2	94	21.940019703839	9
2	94	21.940019703839	10
2	94	21.940019703839	11
2	138	36.381829312069	12
2	138	36.381829312069	13
2	138	36.381829312069	14
2	158	43.457411505237	15
2	158	43.457411505237	16
2	158	43.457411505237	17
2	173	45.023851230059	18
2	173	45.023851230059	19
2	173	45.023851230059	20
2	194	48.337052841222	21
2	194	48.337052841222	22
2	194	48.337052841222	23
2	212	50.15123500347	24
2	212	50.15123500347	25
2	212	50.15123500347	26
2	226	52.786736564671	27
2	226	52.786736564671	28
2	226	52.786736564671	29
2	269	67.629951706696	30
2	269	67.629951706696	31
2	269	67.629951706696	32
2	321	81.900754221896	33
2	321	81.900754221896	34
2	321	81.900754221896	35
2	344	87.664049845058	36
2	344	87.664049845058	37
2	344	87.664049845058	38
2	359	89.199340101587	39
2	359	89.199340101587	40
2	359	89.199340101587	41
2	366	90.262823067551	42
2	366	90.262823067551	43
2	366	90.262823067551	44
2	379	95.118117081486	45
2	379	95.118117081486	46
2	379	95.118117081486	47
2	399	100.146862454865	48
2	399	100.146862454865	49
2	399	100.146862454865	50
2	419	106.195421524764	51
2	419	106.195421524764	52
2	419	106.195421524764	53
2	443	110.713208501911	54
2	443	110.713208501911	55
2	443	110.713208501911	56
2	461	112.215311594052	57
2	461	112.215311594052	58
2	461	112.215311594052	59
2	475	115.4538594154	60
2	475	115.4538594154	61
2	475	115.4538594154	62
2	504	123.497149140071	63
2	504	123.497149140071	64
2	504	123.497149140071	65
2	523	126.635594126272	66
2	523	126.635594126272	67
2	523	126.635594126272	68
2	560	140.1693344676	69
2	560	140.1693344676	70
2	560	140.1693344676	71
2	584	144.307327898216	72
2	584	144.307327898216	73
2	584	144.307327898216	74
2	598	147.129319326572	75
2	598	147.129319326572	76
2	598	147.129319326572	77
2	613	148.371309722796	78
2	613	148.371309722796	79
2	613	148.371309722796	80
2	640	154.787650863761	81
2	640	154.787650863761	82
2	640	154.787650863761	83
2	651	156.46671201181	84
2	651	156.46671201181	85
2	651	156.46671201181	86
2	702	170.829697137234	87
2	702	170.829697137234	88
2	702	170.829697137234	89
2	719	173.683148810077	90
2	719	173.683148810077	91
2	719	173.683148810077	92
2	726	175.317613834312	93
2	726	175.317613834312	94
2	726	175.317613834312	95
2	766	185.584845644771	96
2	766	185.584845644771	97
2	766	185.584845644771	98
2	779	188.117333498609	99
2	779	188.117333498609	100
2	779	188.117333498609	101
2	803	192.257708872172	102
2	803	192.257708872172	103
2	803	192.257708872172	104
2	823	197.534621741084	105
2	823	197.534621741084	106
2	823	197.534621741084	107
2	838	198.644275431489	108
2	838	198.644275431489	109
2	838	198.644275431489	110
2	856	203.105668788551	111
2	856	203.105668788551	112
2	856	203.105668788551	113
2	880	204.142898614323	114
2	880	204.142898614323	115
2	880	204.142898614323	116
2	892	205.545366521297	117
2	892	205.545366521297	118
2	892	205.545366521297	119
2	915	209.10059784039	120
2	915	209.10059784039	121
2	915	209.10059784039	122
2	964	220.920158469711	123
2	964	220.920158469711	124
2	964	220.920158469711	125
2	995	226.203409307615	126
2	995	226.203409307615	127
2	995	226.203409307615	128
2	1009	228.60685084572	129
2	1009	228.60685084572	130
2	1009	228.60685084572	131
2	1048	236.297255967302	132
2	1048	236.297255967302	133
2	1048	236.297255967302	134
2	1059	237.591729300911	135
2	1059	237.591729300911	136
2	1059	237.591729300911	137
3	26	6.596056595189	0
3	26	6.596056595189	1
3	26	6.596056595189	2
3	81	19.078594317782	3
3	81	19.078594317782	4
3	81	19.078594317782	5
3	162	43.477845629367	6
3	162	43.477845629367	7
3	162	43.477845629367	8
3	177	45.034617794653	9
3	177	45.034617794653	10
3	177	45.034617794653	11
3	198	48.356653828555	12
3	198	48.356653828555	13
3	198	48.356653828555	14
3	216	50.1729758081	15
3	216	50.1729758081	16
3	216	50.1729758081	17
3	273	67.644859659886	18
3	273	67.644859659886	19
3	273	67.644859659886	20
3	325	81.950793760169	21
3	325	81.950793760169	22
3	325	81.950793760169	23
3	348	87.676478847865	24
3	348	87.676478847865	25
3	348	87.676478847865	26
3	447	110.730852298995	27
3	447	110.730852298995	28
3	447	110.730852298995	29
3	465	112.233917024066	30
3	465	112.233917024066	31
3	465	112.233917024066	32
3	479	115.483795856374	33
3	479	115.483795856374	34
3	479	115.483795856374	35
3	509	123.508865995232	36
3	509	123.508865995232	37
3	509	123.508865995232	38
3	564	140.182484428403	39
3	564	140.182484428403	40
3	564	140.182484428403	41
3	602	147.140078674015	42
3	602	147.140078674015	43
3	602	147.140078674015	44
3	617	148.385053310037	45
3	617	148.385053310037	46
3	617	148.385053310037	47
3	655	156.488120116196	48
3	655	156.488120116196	49
3	655	156.488120116196	50
3	730	175.329883566108	51
3	730	175.329883566108	52
3	730	175.329883566108	53
3	807	192.269129458741	54
3	807	192.269129458741	55
3	807	192.269129458741	56
3	828	197.559155120127	57
3	828	197.559155120127	58
3	828	197.559155120127	59
3	842	198.655091729236	60
3	842	198.655091729236	61
3	842	198.655091729236	62
3	862	203.124472065431	63
3	862	203.124472065431	64
3	862	203.124472065431	65
3	884	204.160634105016	66
3	884	204.160634105016	67
3	884	204.160634105016	68
3	919	209.1118700061	69
3	919	209.1118700061	70
3	919	209.1118700061	71
3	972	220.951389768616	72
3	972	220.951389768616	73
3	972	220.951389768616	74
3	1052	236.308238460332	75
3	1052	236.308238460332	76
3	1052	236.308238460332	77
3	1070	237.637770122679	78
3	1070	237.637770122679	79
3	1070	237.637770122679	80
4	27	6.59857712968	0
4	27	6.59857712968	1
4	27	6.59857712968	2
4	43	9.573531025481	3
4	43	9.573531025481	4
4	43	9.573531025481	5
4	54	11.498361820887	6
4	54	11.498361820887	7
4	54	11.498361820887	8
4	80	19.077569964698	9
4	80	19.077569964698	10
4	80	19.077569964698	11
4	119	27.995717194505	12
4	119	27.995717194505	13
4	119	27.995717194505	14
4	142	36.399611749261	15
4	142	36.399611749261	16
4	142	36.399611749261	17
4	163	43.479129936896	18
4	163	43.479129936896	19
4	163	43.479129936896	20
4	178	45.040744954586	21
4	178	45.040744954586	22
4	178	45.040744954586	23
4	208	50.131470345815	24
4	208	50.131470345815	25
4	208	50.131470345815	26
4	277	67.656407809408	27
4	277	67.656407809408	28
4	277	67.656407809408	29
4	317	81.877246665514	30
4	317	81.877246665514	31
4	317	81.877246665514	32
4	349	87.68115865482	33
4	349	87.68115865482	34
4	349	87.68115865482	35
4	392	98.356870526677	36
4	392	98.356870526677	37
4	392	98.356870526677	38
4	403	100.164996484342	39
4	403	100.164996484342	40
4	403	100.164996484342	41
4	423	106.238461106555	42
4	423	106.238461106555	43
4	423	106.238461106555	44
4	439	110.696690552022	45
4	439	110.696690552022	46
4	439	110.696690552022	47
4	457	112.171577676903	48
4	457	112.171577676903	49
4	457	112.171577676903	50
4	508	123.508007496119	51
4	508	123.508007496119	52
4	508	123.508007496119	53
4	529	126.657164187271	54
4	529	126.657164187271	55
4	529	126.657164187271	56
4	565	140.19020288044	57
4	565	140.19020288044	58
4	565	140.19020288044	59
4	588	144.334028885228	60
4	588	144.334028885228	61
4	588	144.334028885228	62
4	606	147.159350773508	63
4	606	147.159350773508	64
4	606	147.159350773508	65
4	618	148.390287157397	66
4	618	148.390287157397	67
4	618	148.390287157397	68
4	644	154.806942172817	69
4	644	154.806942172817	70
4	644	154.806942172817	71
4	686	163.749480037129	72
4	686	163.749480037129	73
4	686	163.749480037129	74
4	715	173.67268144508	75
4	715	173.67268144508	76
4	715	173.67268144508	77
4	734	175.361441486413	78
4	734	175.361441486413	79
4	734	175.361441486413	80
4	756	182.807830415683	81
4	756	182.807830415683	82
4	756	182.807830415683	83
4	783	188.143358332318	84
4	783	188.143358332318	85
4	783	188.143358332318	86
4	799	192.234309764389	87
4	799	192.234309764389	88
4	799	192.234309764389	89
4	827	197.556555383686	90
4	827	197.556555383686	91
4	827	197.556555383686	92
4	863	203.124722137767	93
4	863	203.124722137767	94
4	863	203.124722137767	95
4	876	204.13015192842	96
4	876	204.13015192842	97
4	876	204.13015192842	98
4	898	205.560257592327	99
4	898	205.560257592327	100
4	898	205.560257592327	101
4	908	207.503494780639	102
4	908	207.503494780639	103
4	908	207.503494780639	104
4	920	209.112502549129	105
4	920	209.112502549129	106
4	920	209.112502549129	107
4	936	211.07025620649	108
4	936	211.07025620649	109
4	936	211.07025620649	110
4	968	220.933265759968	111
4	968	220.933265759968	112
4	968	220.933265759968	113
4	985	224.398629619332	114
4	985	224.398629619332	115
4	985	224.398629619332	116
4	999	226.225474205812	117
4	999	226.225474205812	118
4	999	226.225474205812	119
4	1013	228.633798163054	120
4	1013	228.633798163054	121
4	1013	228.633798163054	122
4	1041	234.772701057755	123
4	1041	234.772701057755	124
4	1041	234.772701057755	125
4	1063	237.603568328448	126
4	1063	237.603568328448	127
4	1063	237.603568328448	128

