version 2
run General-3-20231004-18:41:38-10021
attr configname General
attr datetime 20231004-18:41:38
attr experiment General
attr inifile omnetpp.ini
attr iterationvars ""
attr iterationvarsf ""
attr measurement ""
attr network Multihop
attr processid 10021
attr repetition 3
attr replication #3
attr resultdir results
attr runnumber 3
attr seedset 3
param Multihop.node[*].transmissionTime "uniform(1s, 2s)"
param Multihop.node[*].delayTime "uniform(0.01s, 0.2s)"
param Multihop.node[*].processingTime exponential(0.01s)
param Multihop.node[0].lossProbability 0
param Multihop.node[1].lossProbability 0.5
param Multihop.node[2].lossProbability 0.4
param Multihop.node[3].lossProbability 0.3
param Multihop.node[4].lossProbability 0.2
param Multihop.node[5].lossProbability 0.1

vector 0 Multihop.node[0] txVector ETV
vector 1 Multihop.node[1] txVector ETV
vector 2 Multihop.node[2] txVector ETV
vector 3 Multihop.node[3] txVector ETV
vector 4 Multihop.node[4] txVector ETV
vector 5 Multihop.node[5] rxVector ETV
0	1	0.114651601831	0
0	5	1.185376482154	1
0	13	2.306705061416	2
0	15	3.347335798968	3
0	17	4.5952241007	4
0	19	5.688775596278	5
0	21	7.38359925344	6
0	23	8.528969400864	7
0	27	9.982141700409	8
0	33	11.33604677331	9
0	37	13.101873147835	10
0	39	14.504233790164	11
0	41	16.057005738675	12
0	47	17.363366365734	13
0	57	18.817974130691	14
0	67	20.5363961559	15
0	69	21.935387112035	16
0	71	23.360088721917	17
0	81	24.773807405562	18
0	83	26.336577501914	19
0	85	28.084734938641	20
0	87	29.6943586027	21
0	89	30.897713131572	22
0	95	32.551343984038	23
0	97	34.362571740358	24
0	99	35.736696468501	25
0	101	36.811896582202	26
0	103	38.57247507253	27
0	107	39.636244874283	28
0	109	41.328878621406	29
0	111	42.774779062088	30
0	121	44.137119520757	31
0	125	45.980906616034	32
0	129	47.521026217448	33
0	131	49.042630554246	34
0	133	50.185229900595	35
0	135	51.487493514152	36
0	139	53.294516189093	37
0	149	54.315741929295	38
0	151	55.522708064946	39
0	153	57.448440849385	40
0	155	58.725763898412	41
0	157	59.901826013647	42
0	159	61.892127202194	43
0	161	63.584777818596	44
0	165	65.336917848628	45
0	175	66.42291856401	46
0	185	67.847648514736	47
0	195	69.197573736611	48
0	199	71.079482184326	49
0	201	72.907504301354	50
0	211	74.141196310589	51
0	213	75.610577622963	52
0	215	77.113107839202	53
0	225	78.28547073861	54
0	227	79.857708358507	55
0	229	81.20012794535	56
0	235	82.809773660101	57
0	237	84.809749123942	58
0	239	86.077696878765	59
0	241	87.334903256804	60
0	251	88.611544803553	61
0	257	90.606987978401	62
0	259	92.098803526558	63
0	261	93.228461910574	64
0	269	95.088515373482	65
0	271	97.079811094398	66
0	279	98.237480849795	67
0	283	99.934230837574	68
0	287	101.751266198534	69
0	297	102.832837241072	70
0	299	104.238736225128	71
0	301	105.777199916843	72
0	303	107.426773175433	73
0	307	108.736734810121	74
0	317	110.233399764703	75
0	319	111.39304692305	76
0	329	113.212589006706	77
0	335	114.451025304452	78
0	337	116.379524150931	79
0	347	117.742600430569	80
0	351	119.186188109519	81
0	361	120.968572088584	82
0	365	122.4075747892	83
0	373	124.377003958749	84
0	375	125.399099773096	85
0	379	126.621476092676	86
0	383	128.404233623131	87
0	391	129.88116538741	88
0	393	131.683993357535	89
0	395	133.584764162613	90
0	401	134.945847937673	91
0	403	136.229537387447	92
0	407	137.442431723069	93
0	409	138.568252762848	94
0	411	140.561176319908	95
0	413	141.994710611248	96
0	423	143.61141589803	97
0	425	145.400005034239	98
0	429	147.017459216363	99
0	431	148.142080966451	100
0	433	149.173010162844	101
0	435	150.405108552261	102
0	437	151.417864043566	103
0	439	152.692501513122	104
0	441	154.634415876653	105
0	443	155.911183792932	106
0	453	156.986971997723	107
0	455	158.602161453871	108
0	457	159.782901782842	109
0	459	161.526731194064	110
0	463	162.892212866174	111
0	465	164.685535544364	112
0	469	166.319839014041	113
0	471	167.957891895503	114
0	475	169.613025806446	115
0	477	171.144488936823	116
0	485	172.323027770801	117
0	487	173.649291776188	118
0	489	175.233221868819	119
0	491	176.333799581577	120
0	495	177.835722924977	121
0	497	178.906092684319	122
0	507	180.744996091885	123
0	509	182.362340718111	124
0	513	184.356860744836	125
0	517	186.201136376778	126
0	527	188.057754535297	127
0	531	189.692527754301	128
0	541	190.883811045507	129
0	545	192.707044603139	130
0	547	193.893995598493	131
0	557	195.56832597365	132
0	559	196.999844198184	133
0	561	198.914224637043	134
1	3	0.14297423212	0
1	7	1.203800179986	1
1	25	8.541397469655	2
1	29	9.998926964697	3
1	35	11.382408987226	4
1	43	16.07583961812	5
1	49	17.387540717993	6
1	59	18.82818243016	7
1	73	23.385559857535	8
1	91	30.918580549775	9
1	105	38.6008661723	10
1	113	42.792037720948	11
1	123	44.153839078988	12
1	127	46.008400979155	13
1	137	51.501342715762	14
1	141	53.311102599392	15
1	163	63.596013251177	16
1	167	65.357872758506	17
1	177	66.45005437397	18
1	187	67.872465062232	19
1	197	69.21545672791	20
1	203	72.919771772319	21
1	217	77.12665185527	22
1	231	81.211413297068	23
1	243	87.34780332467	24
1	253	88.625941163308	25
1	263	93.240926005512	26
1	273	97.096172450709	27
1	281	98.261280304164	28
1	285	99.963051309373	29
1	289	101.76494332241	30
1	305	107.455183960785	31
1	309	108.758899978318	32
1	321	111.406649426208	33
1	331	113.234551224729	34
1	339	116.405621396823	35
1	349	117.762902726009	36
1	353	119.211975367057	37
1	363	120.997829385163	38
1	367	122.430309848622	39
1	377	125.413511924347	40
1	381	126.637443581211	41
1	385	128.421496232568	42
1	397	133.616311389922	43
1	405	136.244989255012	44
1	415	142.043379795537	45
1	427	145.418958304502	46
1	445	155.92439069752	47
1	461	161.55172636372	48
1	467	164.709833457986	49
1	473	167.967896684805	50
1	479	171.169148101691	51
1	493	176.359943896872	52
1	499	178.927813426744	53
1	511	182.376408121895	54
1	515	184.372074171937	55
1	519	186.22704872357	56
1	529	188.071914728506	57
1	533	189.710883655371	58
1	543	190.894043966929	59
1	549	193.927894256673	60
1	563	198.926526816601	61
2	9	1.219546036734	0
2	31	10.033380146212	1
2	45	16.089054352457	2
2	51	17.414554645273	3
2	61	18.839722305936	4
2	75	23.408062320086	5
2	93	30.949065565403	6
2	115	42.808150299818	7
2	143	53.321366308827	8
2	169	65.371871138575	9
2	179	66.468523997184	10
2	189	67.905146576	11
2	205	72.961553006717	12
2	219	77.139782638088	13
2	233	81.221810253544	14
2	245	87.380605401057	15
2	255	88.643862681666	16
2	265	93.268317565328	17
2	275	97.118463015451	18
2	291	101.783175568253	19
2	311	108.780259476966	20
2	323	111.417769045723	21
2	333	113.244809818355	22
2	341	116.428335201844	23
2	355	119.226770718094	24
2	369	122.445587724209	25
2	387	128.436092493437	26
2	399	133.629966057516	27
2	417	142.056852057265	28
2	447	155.977096516636	29
2	481	171.179401539082	30
2	501	178.939139117688	31
2	521	186.238166327516	32
2	535	189.721157694937	33
2	551	193.950479099194	34
2	565	198.939163658952	35
3	11	1.229735296555	0
3	53	17.427533118132	1
3	63	18.853657268804	2
3	77	23.418296209791	3
3	117	42.834671783008	4
3	145	53.338409887848	5
3	171	65.386359833816	6
3	181	66.499819625268	7
3	191	67.930551775368	8
3	207	72.986083878522	9
3	221	77.171577301476	10
3	247	87.408638438174	11
3	267	93.341990057595	12
3	277	97.132618259666	13
3	293	101.818415421853	14
3	313	108.80002528955	15
3	325	111.431142029298	16
3	343	116.447560567083	17
3	357	119.242011802577	18
3	371	122.457086382261	19
3	389	128.449136400281	20
3	419	142.072909132201	21
3	449	155.992589139651	22
3	483	171.19008293448	23
3	503	178.95676612553	24
3	523	186.260732298043	25
3	537	189.731701993022	26
3	553	193.976040168325	27
3	567	198.971836705907	28
4	55	17.459888469135	0
4	65	18.880208381172	1
4	79	23.432090781182	2
4	119	42.848473917335	3
4	147	53.373423910105	4
4	173	65.403827655425	5
4	183	66.525944225553	6
4	193	67.943884252984	7
4	209	72.99816951765	8
4	223	77.188574091949	9
4	249	87.42022038255	10
4	295	101.829412314064	11
4	315	108.871274791237	12
4	327	111.453645846399	13
4	345	116.460193207173	14
4	359	119.253128486312	15
4	421	142.087986385069	16
4	451	156.015688383424	17
4	505	178.985373811919	18
4	525	186.288444224475	19
4	539	189.758644832035	20
4	555	193.986967659363	21
4	569	198.995427528606	22
5	56	17.469888469135	0
5	66	18.890208381172	1
5	80	23.442090781182	2
5	120	42.858473917335	3
5	148	53.383423910105	4
5	174	65.413827655425	5
5	184	66.535944225553	6
5	194	67.953884252984	7
5	210	73.00816951765	8
5	224	77.198574091949	9
5	250	87.43022038255	10
5	296	101.839412314064	11
5	316	108.881274791237	12
5	328	111.463645846399	13
5	346	116.470193207173	14
5	360	119.263128486312	15
5	422	142.097986385069	16
5	452	156.025688383424	17
5	506	178.995373811919	18
5	526	186.298444224475	19
5	540	189.768644832035	20
5	556	193.996967659363	21
5	570	199.005427528606	22

