version 2
run General-1-20231004-18:41:38-10021
attr configname General
attr datetime 20231004-18:41:38
attr experiment General
attr inifile omnetpp.ini
attr iterationvars ""
attr iterationvarsf ""
attr measurement ""
attr network Multihop
attr processid 10021
attr repetition 1
attr replication #1
attr resultdir results
attr runnumber 1
attr seedset 1
param Multihop.node[*].transmissionTime "uniform(1s, 2s)"
param Multihop.node[*].delayTime "uniform(0.01s, 0.2s)"
param Multihop.node[*].processingTime exponential(0.01s)
param Multihop.node[0].lossProbability 0
param Multihop.node[1].lossProbability 0.5
param Multihop.node[2].lossProbability 0.4
param Multihop.node[3].lossProbability 0.3
param Multihop.node[4].lossProbability 0.2
param Multihop.node[5].lossProbability 0.1

vector 0 Multihop.node[0] txVector ETV
vector 1 Multihop.node[1] txVector ETV
vector 2 Multihop.node[2] txVector ETV
vector 3 Multihop.node[3] txVector ETV
vector 4 Multihop.node[4] txVector ETV
vector 5 Multihop.node[5] rxVector ETV
0	1	0.089234179703	0
0	5	2.086418987836	1
0	7	3.214543435608	2
0	9	5.213583951003	3
0	11	6.449672927267	4
0	13	7.846253653408	5
0	15	9.234164393625	6
0	17	10.903910433992	7
0	27	12.839449506604	8
0	29	14.069026726649	9
0	37	15.60344063386	10
0	39	17.542568428793	11
0	49	19.320957664286	12
0	53	21.1859779096	13
0	55	23.015581274291	14
0	57	24.288631251666	15
0	61	25.347874448753	16
0	63	26.940939965543	17
0	73	28.612594057225	18
0	77	30.395908529755	19
0	87	31.430079839776	20
0	89	32.652204388172	21
0	91	33.725568562398	22
0	95	35.194807087189	23
0	97	37.098177258509	24
0	99	38.217667732273	25
0	101	39.742467115286	26
0	105	40.826090120596	27
0	107	42.736538500411	28
0	109	44.035468611287	29
0	111	45.61985773512	30
0	115	47.185769763662	31
0	121	49.142305422461	32
0	123	50.675753915336	33
0	129	52.625692048928	34
0	139	54.391177156128	35
0	143	56.274302627778	36
0	145	57.722282810722	37
0	149	59.614418679269	38
0	151	61.152843373947	39
0	155	62.805142252127	40
0	165	64.376150814237	41
0	167	65.730089906024	42
0	169	67.493322963247	43
0	179	68.84985468013	44
0	181	69.923646691141	45
0	191	71.710598165055	46
0	197	73.473518232235	47
0	201	75.246257375579	48
0	211	76.82489130751	49
0	213	78.292283992867	50
0	221	79.561285042555	51
0	223	81.033760083958	52
0	229	82.776524911055	53
0	239	84.006887715196	54
0	241	85.179166072167	55
0	243	86.575479360416	56
0	245	87.682844668745	57
0	247	89.192654946937	58
0	257	90.294790179354	59
0	259	91.528412707035	60
0	267	92.619969147375	61
0	271	94.432964119014	62
0	275	96.15035572101	63
0	283	97.577265544679	64
0	285	98.939169994207	65
0	287	100.092508478207	66
0	289	102.029698804138	67
0	291	103.946108677309	68
0	293	105.728067139979	69
0	299	107.344396082801	70
0	301	108.474165695603	71
0	307	109.768525167485	72
0	309	110.842494165409	73
0	313	111.994631322683	74
0	323	113.933343020617	75
0	329	115.137701144791	76
0	331	116.897049944033	77
0	333	118.548170509399	78
0	335	119.587854011334	79
0	345	121.401730373153	80
0	347	122.547763116775	81
0	357	124.056551855408	82
0	359	125.820793467924	83
0	363	127.033527162742	84
0	367	128.128946407117	85
0	369	129.485410089023	86
0	373	130.580717900652	87
0	383	132.511730829138	88
0	393	134.239742469392	89
0	395	135.666553313262	90
0	405	137.395110709942	91
0	409	138.403113420704	92
0	411	139.697624967318	93
0	421	140.864576559864	94
0	425	142.473783548107	95
0	427	143.828360781889	96
0	429	144.906880751369	97
0	433	146.60006594949	98
0	439	148.059611230274	99
0	441	149.531694655889	100
0	443	150.637085906114	101
0	445	152.140161815915	102
0	449	154.025851676823	103
0	459	155.307328442461	104
0	461	157.273055247381	105
0	467	158.703023143928	106
0	469	159.829549302231	107
0	473	161.779592609383	108
0	483	163.732423733804	109
0	487	165.547523791087	110
0	493	166.738784061163	111
0	495	167.754657040932	112
0	501	168.804368056007	113
0	505	170.67188551079	114
0	515	171.926588258124	115
0	517	173.274278274621	116
0	527	174.97416230489	117
0	531	176.874690852011	118
0	541	178.138894156203	119
0	543	179.670562262763	120
0	553	180.800756980781	121
0	555	182.074657305725	122
0	557	183.08465703309	123
0	567	184.304523331229	124
0	569	185.320986095699	125
0	579	186.619786319672	126
0	589	187.664058616967	127
0	591	189.300349230529	128
0	593	191.073199661332	129
0	595	192.778881804203	130
0	599	194.017092719325	131
0	609	195.298309610807	132
0	611	196.820596178877	133
0	613	198.724475441617	134
1	3	0.126198958082	0
1	19	10.932638670661	1
1	31	14.103556391451	2
1	41	17.565155200905	3
1	51	19.348627176472	4
1	59	24.309733891975	5
1	65	26.956246642004	6
1	75	28.62791350877	7
1	79	30.415690988571	8
1	93	33.736579727285	9
1	103	39.777339569233	10
1	113	45.639375316372	11
1	117	47.198794052827	12
1	125	50.692547533573	13
1	131	52.636156109126	14
1	141	54.40895959332	15
1	147	57.737024282263	16
1	153	61.167325967901	17
1	157	62.825298846654	18
1	171	67.517298067523	19
1	183	69.934308808497	20
1	193	71.735364513954	21
1	199	73.48517794957	22
1	203	75.256347863707	23
1	215	78.320103624336	24
1	225	81.045891472564	25
1	231	82.793622709197	26
1	249	89.206061807618	27
1	261	91.546853958041	28
1	269	92.633390670778	29
1	273	94.452456083628	30
1	277	96.174293865445	31
1	295	105.738433773969	32
1	303	108.488641305284	33
1	311	110.854256986077	34
1	315	112.009269691834	35
1	325	113.98338255889	36
1	337	119.612232967843	37
1	349	122.560192119582	38
1	361	125.831565069622	39
1	365	127.045296987229	40
1	371	129.496956332022	41
1	375	130.599311907113	42
1	385	132.52912769705	43
1	397	135.690672938757	44
1	407	137.431195117861	45
1	413	139.70786893554	46
1	423	140.874931253778	47
1	431	144.917008693006	48
1	435	146.642589566514	49
1	447	152.157805612999	50
1	451	154.040230289547	51
1	463	157.287306139117	52
1	471	159.843312407325	53
1	475	161.792056644613	54
1	485	163.750274105176	55
1	489	165.566411517991	56
1	497	167.769755556771	57
1	503	168.829793432687	58
1	507	170.682743866838	59
1	519	173.296235328551	60
1	529	174.98420904709	61
1	533	176.890990271955	62
1	545	179.688805281533	63
1	559	183.094981812735	64
1	571	185.338767037991	65
1	581	186.635652736578	66
1	597	192.789336150596	67
1	601	194.047124166261	68
2	21	10.946396862588	0
2	33	14.119666623561	1
2	43	17.591388414497	2
2	67	26.968447510451	3
2	81	30.436497800471	4
2	119	47.211420896463	5
2	127	50.710325884528	6
2	133	52.64766394408	7
2	159	62.836649199091	8
2	173	67.548613151841	9
2	185	69.94869867111	10
2	195	71.748950718027	11
2	205	75.278693645181	12
2	217	78.338118187809	13
2	227	81.06213349714	14
2	233	82.805961826254	15
2	251	89.218698318563	16
2	263	91.562265544204	17
2	279	96.189876753249	18
2	297	105.75905630095	19
2	305	108.501852248284	20
2	317	112.019782815143	21
2	327	114.015733805936	22
2	339	119.628307846965	23
2	351	122.595014466141	24
2	377	130.627615572009	25
2	387	132.552476543353	26
2	399	135.705741461984	27
2	415	139.723883764778	28
2	437	146.656657004074	29
2	453	154.072890916703	30
2	465	157.305911569131	31
2	477	161.80491614967	32
2	491	165.576904857463	33
2	499	167.788357117672	34
2	509	170.694460721999	35
2	521	173.307011959469	36
2	535	176.905450271426	37
2	547	179.700642476453	38
2	561	183.132295850236	39
2	573	185.368419853541	40
2	583	186.645847814551	41
2	603	194.057883513704	42
3	23	10.963831759495	0
3	35	14.135300075874	1
3	45	17.602362346888	2
3	69	26.981867198616	3
3	83	30.450043077245	4
3	135	52.673385537768	5
3	161	62.85836763075	6
3	175	67.558730529978	7
3	187	69.987143720789	8
3	207	75.295054525882	9
3	219	78.348844771063	10
3	235	82.816467438149	11
3	253	89.263015273834	12
3	265	91.576851722988	13
3	281	96.205469603842	14
3	319	112.043290371525	15
3	341	119.645897009071	16
3	353	122.611216268579	17
3	379	130.647378424325	18
3	389	132.564284643704	19
3	401	135.741670850359	20
3	417	139.750404022351	21
3	455	154.085654898281	22
3	479	161.834852590644	23
3	511	170.706811528164	24
3	523	173.317383472929	25
3	537	176.91819750388	26
3	549	179.716108295684	27
3	563	183.157532674375	28
3	575	185.380466927784	29
3	585	186.656541658862	30
3	605	194.078681376747	31
4	25	10.97969179414	0
4	47	17.619663623939	1
4	71	26.99340011066	2
4	85	30.465951411272	3
4	137	52.683688082218	4
4	163	62.87880175488	5
4	177	67.575624254505	6
4	189	70.001920906562	7
4	209	75.319518901116	8
4	237	82.833783447037	9
4	255	89.276276992313	10
4	321	112.056838285042	11
4	343	119.657054890057	12
4	355	122.622634983898	13
4	381	130.661301704617	14
4	391	132.585902027345	15
4	403	135.753946261394	16
4	419	139.764998645856	17
4	457	154.095896637705	18
4	481	161.84753489325	19
4	513	170.722213777173	20
4	525	173.342961412188	21
4	539	176.928431917323	22
4	551	179.737650219309	23
4	565	183.17482236607	24
4	577	185.391339365607	25
4	587	186.683242645874	26
4	607	194.0907562761	27
5	26	10.98969179414	0
5	48	17.629663623939	1
5	72	27.00340011066	2
5	86	30.475951411272	3
5	138	52.693688082218	4
5	164	62.88880175488	5
5	178	67.585624254505	6
5	190	70.011920906562	7
5	210	75.329518901116	8
5	238	82.843783447037	9
5	256	89.286276992313	10
5	322	112.066838285042	11
5	344	119.667054890057	12
5	404	135.763946261394	13
5	420	139.774998645856	14
5	458	154.105896637705	15
5	482	161.85753489325	16
5	514	170.732213777173	17
5	526	173.352961412188	18
5	540	176.938431917323	19
5	552	179.747650219309	20
5	566	183.18482236607	21
5	578	185.401339365607	22
5	588	186.693242645874	23
5	608	194.1007562761	24

