version 2
run General-4-20231004-18:41:38-10021
attr configname General
attr datetime 20231004-18:41:38
attr experiment General
attr inifile omnetpp.ini
attr iterationvars ""
attr iterationvarsf ""
attr measurement ""
attr network Multihop
attr processid 10021
attr repetition 4
attr replication #4
attr resultdir results
attr runnumber 4
attr seedset 4
param Multihop.node[*].transmissionTime "uniform(1s, 2s)"
param Multihop.node[*].delayTime "uniform(0.01s, 0.2s)"
param Multihop.node[*].processingTime exponential(0.01s)
param Multihop.node[0].lossProbability 0
param Multihop.node[1].lossProbability 0.5
param Multihop.node[2].lossProbability 0.4
param Multihop.node[3].lossProbability 0.3
param Multihop.node[4].lossProbability 0.2
param Multihop.node[5].lossProbability 0.1

vector 0 Multihop.node[0] txVector ETV
vector 1 Multihop.node[1] txVector ETV
vector 2 Multihop.node[2] txVector ETV
vector 3 Multihop.node[3] txVector ETV
vector 4 Multihop.node[4] txVector ETV
vector 5 Multihop.node[5] rxVector ETV
0	1	0.193735669288	0
0	11	2.094357123985	1
0	15	3.235821296847	2
0	17	4.934241536227	3
0	19	6.837420062548	4
0	23	8.470383162065	5
0	29	10.04273965388	6
0	33	11.434505849298	7
0	35	13.047031192494	8
0	37	14.313504975674	9
0	47	15.957419238904	10
0	49	17.403768439464	11
0	51	18.845116972843	12
0	55	19.910826511601	13
0	65	21.776709266625	14
0	67	23.037681345515	15
0	69	24.073439533742	16
0	79	25.302202203929	17
0	81	26.677570637701	18
0	87	28.310234615965	19
0	89	29.887231584791	20
0	95	31.238905296348	21
0	105	32.322074391101	22
0	107	34.132979327966	23
0	109	35.259160988652	24
0	111	36.334867363949	25
0	121	38.02045556732	26
0	123	39.376828657151	27
0	125	41.281404749411	28
0	135	42.657824220056	29
0	139	43.737803460019	30
0	149	44.833001537402	31
0	153	46.776952210502	32
0	157	48.368825856284	33
0	161	49.735595525163	34
0	163	51.256269926592	35
0	173	52.563282598197	36
0	183	54.350035744175	37
0	185	55.83149568752	38
0	189	57.758904297991	39
0	191	58.91193255006	40
0	193	60.879612179395	41
0	195	62.20022782629	42
0	201	64.086024919214	43
0	203	65.22295073738	44
0	205	66.335461073012	45
0	213	67.407744328647	46
0	223	69.344878834129	47
0	227	70.807208196415	48
0	237	72.116002760983	49
0	247	73.20614448345	50
0	251	74.243006040265	51
0	253	75.905308475408	52
0	257	77.488852007005	53
0	267	79.393228628829	54
0	273	80.527974274864	55
0	275	82.019761912448	56
0	279	83.951176179962	57
0	281	85.45113763415	58
0	285	86.860773123258	59
0	293	88.376544801441	60
0	295	89.515726600929	61
0	301	91.245281189603	62
0	303	92.561557695425	63
0	309	94.315413145271	64
0	319	95.542394164639	65
0	321	97.539798152555	66
0	325	98.834430711033	67
0	327	100.098691220317	68
0	337	101.521057166547	69
0	339	103.248785837941	70
0	349	104.938571131943	71
0	351	105.955054750122	72
0	353	107.268421376278	73
0	355	109.258538296367	74
0	357	111.142580683264	75
0	359	112.16252304303	76
0	361	113.265318283499	77
0	363	114.359398926063	78
0	365	115.625196252171	79
0	375	116.820143939847	80
0	385	118.211811997848	81
0	387	119.295712380357	82
0	389	120.911074395211	83
0	393	122.106305553265	84
0	399	124.053742686439	85
0	401	126.025446007646	86
0	403	127.069368515781	87
0	407	128.354613109411	88
0	409	129.817462867511	89
0	411	131.242255123717	90
0	413	132.997904412833	91
0	415	134.249402878958	92
0	417	136.112750001404	93
0	421	137.700384407689	94
0	431	138.725786109141	95
0	441	139.833777302329	96
0	451	141.758964415325	97
0	453	143.496075290872	98
0	457	145.324183345923	99
0	459	146.436057662276	100
0	465	147.986332887235	101
0	467	149.822207424707	102
0	469	151.351279807427	103
0	471	152.764320850755	104
0	473	153.826887756503	105
0	475	155.022912149933	106
0	477	156.47674138859	107
0	487	157.826472486286	108
0	489	159.117312339517	109
0	491	160.863139903555	110
0	495	162.814808495725	111
0	497	164.135173148392	112
0	503	165.640033000997	113
0	507	167.175053167539	114
0	509	168.748336771652	115
0	511	170.150035860166	116
0	515	171.948129903441	117
0	521	173.255534790838	118
0	523	174.662290617041	119
0	525	176.527385073164	120
0	527	178.257600404471	121
0	535	179.854103681315	122
0	537	181.474672931629	123
0	541	182.543642365756	124
0	543	184.328253101474	125
0	547	185.332125739111	126
0	549	186.55004187502	127
0	559	187.814957598141	128
0	561	189.555597710573	129
0	563	191.060598122106	130
0	573	192.093657589668	131
0	577	193.311823260655	132
0	587	194.878303294919	133
0	593	195.99166020021	134
0	595	197.841725335607	135
0	597	199.334041263127	136
1	3	0.205631491707	0
1	13	2.106899673373	1
1	21	6.84747178759	2
1	25	8.484869440801	3
1	31	10.069450008181	4
1	39	14.340168344807	5
1	53	18.857051136434	6
1	57	19.939375301173	7
1	71	24.085811711996	8
1	83	26.690094205537	9
1	91	29.903538011176	10
1	97	31.251820987308	11
1	113	36.374255974688	12
1	127	41.310159787269	13
1	137	42.668280972461	14
1	141	43.750255182748	15
1	151	44.844779317011	16
1	155	46.816980717987	17
1	159	48.379044414316	18
1	165	51.284176440496	19
1	175	52.584982954264	20
1	187	55.843448636781	21
1	197	62.218110692149	22
1	207	66.34760835211	23
1	215	67.424728902651	24
1	225	69.35645078103	25
1	229	70.831200455851	26
1	239	72.128175676935	27
1	249	73.217026048309	28
1	255	75.928286294062	29
1	259	77.499020596792	30
1	269	79.409614613931	31
1	277	82.057234059726	32
1	283	85.47778910228	33
1	287	86.877500475305	34
1	297	89.53405861288	35
1	305	92.574832074286	36
1	311	94.340284092684	37
1	323	97.560827737302	38
1	329	100.129653265205	39
1	341	103.264793718584	40
1	367	115.640207255075	41
1	377	116.8337445659	42
1	391	120.925868218167	43
1	395	122.118989291033	44
1	405	127.08252198243	45
1	419	136.135064978843	46
1	423	137.711850344621	47
1	433	138.736735727517	48
1	443	139.845767588396	49
1	455	143.511002697851	50
1	461	146.461759862103	51
1	479	156.488768917055	52
1	493	160.884010346095	53
1	499	164.146123670724	54
1	505	165.653520679332	55
1	513	170.164430552545	56
1	517	171.959567130477	57
1	529	178.284483397088	58
1	539	181.507621519254	59
1	545	184.365365047219	60
1	551	186.581361997447	61
1	565	191.072916976412	62
1	575	192.137304874236	63
1	579	193.350038088491	64
1	589	194.88880912276	65
2	5	0.234984622813	0
2	27	8.504136183777	1
2	41	14.350360425208	2
2	59	19.975298414917	3
2	73	24.097805012981	4
2	85	26.701587924087	5
2	93	29.917981625338	6
2	99	31.262306646899	7
2	115	36.388049175873	8
2	129	41.333381389421	9
2	143	43.776706691011	10
2	167	51.320679245273	11
2	177	52.605493786578	12
2	199	62.232748620637	13
2	209	66.357637660974	14
2	217	67.448492137551	15
2	231	70.85528010642	16
2	241	72.146418912456	17
2	261	77.531720987376	18
2	271	79.429681405458	19
2	289	86.9079328939	20
2	299	89.566221562088	21
2	307	92.586105598793	22
2	313	94.365779694259	23
2	331	100.148735446428	24
2	343	103.28141803883	25
2	369	115.665787695451	26
2	379	116.850046899526	27
2	397	122.134193997813	28
2	425	137.72975586847	29
2	435	138.754233207717	30
2	445	139.865999694117	31
2	463	146.5339988356	32
2	481	156.519127062387	33
2	501	164.166128292341	34
2	519	171.991550326588	35
2	531	178.305427312382	36
2	553	186.623005815171	37
2	567	191.101308903082	38
2	581	193.361082800881	39
2	591	194.900979633746	40
3	7	0.254376010482	0
3	43	14.36076635752	1
3	61	20.00572422606	2
3	75	24.111604685846	3
3	101	31.298814840893	4
3	117	36.418945878711	5
3	131	41.355387209216	6
3	145	43.787764524028	7
3	169	51.332059635886	8
3	179	52.643186366154	9
3	211	66.388576543458	10
3	219	67.465189786299	11
3	233	70.890231107735	12
3	243	72.156523726561	13
3	263	77.54873078479	14
3	291	86.940769720421	15
3	315	94.386298653695	16
3	333	100.162027607696	17
3	345	103.296613567522	18
3	371	115.676710060756	19
3	381	116.906785366789	20
3	427	137.742791845316	21
3	437	138.766518681143	22
3	447	139.877059414819	23
3	483	156.533472005148	24
3	533	178.317023081188	25
3	555	186.635763730051	26
3	569	191.130029463634	27
3	583	193.403680608397	28
4	9	0.273478008816	0
4	45	14.399771277536	1
4	63	20.03375789425	2
4	77	24.124362729506	3
4	103	31.311508565732	4
4	119	36.440924646435	5
4	133	41.376458994183	6
4	147	43.798428608068	7
4	171	51.359846218509	8
4	181	52.655880226408	9
4	221	67.475229072339	10
4	235	70.927067955547	11
4	245	72.169136035331	12
4	265	77.568271215697	13
4	317	94.399971920025	14
4	335	100.185860277757	15
4	347	103.336972949714	16
4	373	115.691455721226	17
4	383	116.930538849401	18
4	429	137.754830910215	19
4	439	138.779983958024	20
4	449	139.892789457553	21
4	485	156.545277178302	22
4	557	186.652515548536	23
4	571	191.176910244413	24
4	585	193.418449339532	25
5	10	0.283478008816	0
5	46	14.409771277536	1
5	64	20.04375789425	2
5	78	24.134362729506	3
5	104	31.321508565732	4
5	120	36.450924646435	5
5	172	51.369846218509	6
5	182	52.665880226408	7
5	236	70.937067955547	8
5	246	72.179136035331	9
5	266	77.578271215697	10
5	318	94.409971920025	11
5	348	103.346972949714	12
5	374	115.701455721226	13
5	384	116.940538849401	14
5	440	138.789983958024	15
5	450	139.902789457553	16
5	486	156.555277178302	17
5	558	186.662515548536	18
5	572	191.186910244413	19
5	586	193.428449339532	20

