version 2
run General-2-20231004-18:41:38-10021
attr configname General
attr datetime 20231004-18:41:38
attr experiment General
attr inifile omnetpp.ini
attr iterationvars ""
attr iterationvarsf ""
attr measurement ""
attr network Multihop
attr processid 10021
attr repetition 2
attr replication #2
attr resultdir results
attr runnumber 2
attr seedset 2
param Multihop.node[*].transmissionTime "uniform(1s, 2s)"
param Multihop.node[*].delayTime "uniform(0.01s, 0.2s)"
param Multihop.node[*].processingTime exponential(0.01s)
param Multihop.node[0].lossProbability 0
param Multihop.node[1].lossProbability 0.5
param Multihop.node[2].lossProbability 0.4
param Multihop.node[3].lossProbability 0.3
param Multihop.node[4].lossProbability 0.2
param Multihop.node[5].lossProbability 0.1

vector 0 Multihop.node[0] txVector ETV
vector 1 Multihop.node[1] txVector ETV
vector 2 Multihop.node[2] txVector ETV
vector 3 Multihop.node[3] txVector ETV
vector 4 Multihop.node[4] txVector ETV
vector 5 Multihop.node[5] rxVector ETV
0	1	0.092839031499	0
0	3	1.277921112972	1
0	13	3.20946197656	2
0	17	4.908324665874	3
0	19	6.393500580704	4
0	25	8.026238311334	5
0	29	9.524799478958	6
0	39	11.244553709888	7
0	43	13.214186117538	8
0	45	14.502054937436	9
0	47	15.618248260134	10
0	49	16.799975297433	11
0	53	18.294265065361	12
0	55	19.516100232508	13
0	57	21.283591409	14
0	59	22.860899479147	15
0	61	24.028722793581	16
0	63	25.396194162564	17
0	73	26.864867744986	18
0	77	28.855719741918	19
0	87	30.004284522282	20
0	97	31.31958200342	21
0	103	32.593755256869	22
0	105	34.541845680233	23
0	111	36.364730315301	24
0	113	38.111361728301	25
0	115	39.542899498269	26
0	125	41.431203244738	27
0	127	42.91222499988	28
0	129	44.872538729822	29
0	133	46.298561256863	30
0	135	48.060491255736	31
0	145	49.993119816547	32
0	147	51.566762314895	33
0	155	52.960695606209	34
0	159	54.316449230089	35
0	163	55.678476636782	36
0	167	57.0418025281	37
0	169	58.809290786758	38
0	171	60.723766358588	39
0	173	62.550134364301	40
0	179	63.961880804989	41
0	181	65.343573743496	42
0	183	67.306033319114	43
0	189	68.953047544947	44
0	191	70.182433509054	45
0	197	72.06163553942	46
0	203	73.593779980224	47
0	213	75.070623386437	48
0	223	76.286429783814	49
0	225	78.215569684534	50
0	235	80.193203075342	51
0	245	82.031033623284	52
0	247	83.967281666603	53
0	249	85.431024274575	54
0	251	87.283313234821	55
0	253	88.496080605798	56
0	257	89.496204189975	57
0	259	90.671320579034	58
0	261	92.186179746194	59
0	263	94.066170097348	60
0	265	95.850962020243	61
0	267	97.380783196092	62
0	269	98.654621065613	63
0	277	99.681005211799	64
0	279	101.186416846952	65
0	283	102.521511511198	66
0	287	103.740801484111	67
0	295	105.461149508153	68
0	297	107.273931459776	69
0	301	108.819804162971	70
0	303	109.835914428133	71
0	305	111.770950156051	72
0	309	113.161535836078	73
0	311	114.981001211583	74
0	313	116.071371589574	75
0	315	117.429611897348	76
0	319	118.448597025378	77
0	329	119.478965277337	78
0	335	121.47094952643	79
0	337	123.344076866536	80
0	339	124.829130632822	81
0	345	126.572992662918	82
0	347	128.308344057081	83
0	349	129.493933793176	84
0	359	130.62602555125	85
0	361	131.869192340197	86
0	363	133.549219594356	87
0	373	135.226359337354	88
0	377	136.962959874673	89
0	379	138.127827017121	90
0	383	139.955280367536	91
0	387	141.309452790087	92
0	389	142.34125766742	93
0	391	143.408992906585	94
0	401	145.03717412522	95
0	405	146.418836702611	96
0	407	148.199138573389	97
0	409	149.625113323116	98
0	419	150.971211472311	99
0	425	152.663830342022	100
0	427	154.082737654233	101
0	429	155.151336841304	102
0	439	156.248884911901	103
0	443	157.323145720196	104
0	449	159.080150359795	105
0	451	160.350328119724	106
0	453	162.21650836153	107
0	455	164.190507727694	108
0	465	165.94652073483	109
0	467	167.341734793754	110
0	477	168.940281175328	111
0	481	169.941821910692	112
0	483	171.367461155187	113
0	489	173.331858054055	114
0	495	174.671521325149	115
0	501	175.894623940364	116
0	507	177.070268626577	117
0	511	178.461242888608	118
0	513	180.195928197141	119
0	515	182.169479513328	120
0	517	183.411817016333	121
0	519	184.618435767499	122
0	523	186.042845132315	123
0	527	187.894517406143	124
0	529	189.257812052054	125
0	539	190.59410502298	126
0	541	192.477626711616	127
0	545	193.640965981429	128
0	555	194.858873302836	129
0	565	196.329568304142	130
0	573	197.370814255226	131
0	577	198.578855872174	132
0	579	199.632346046643	133
1	5	1.317434556699	0
1	15	3.220739748289	1
1	21	6.420550531645	2
1	27	8.045076473638	3
1	31	9.537790254258	4
1	41	11.258077954928	5
1	51	16.818316994602	6
1	65	25.416815023688	7
1	75	26.87614022586	8
1	79	28.884844178742	9
1	89	30.017278468536	10
1	99	31.345586804402	11
1	107	34.559084613016	12
1	117	39.581234493605	13
1	131	44.886437712109	14
1	137	48.082912061457	15
1	149	51.602873375986	16
1	157	52.973090028293	17
1	161	54.347511216601	18
1	165	55.695472453499	19
1	175	62.570099687498	20
1	185	67.347697498256	21
1	193	70.201410563271	22
1	199	72.106146951801	23
1	205	73.609246898293	24
1	215	75.097084983268	25
1	227	78.250545801328	26
1	237	80.210891565369	27
1	255	88.507055590447	28
1	271	98.685000885224	29
1	281	101.198180584944	30
1	285	102.549622013735	31
1	289	103.751330094497	32
1	299	107.284115849718	33
1	307	111.805102713892	34
1	317	117.445590753225	35
1	321	118.461748982899	36
1	331	119.494683795241	37
1	341	124.853162228749	38
1	351	129.50403401276	39
1	365	133.580920033865	40
1	375	135.242813178904	41
1	381	138.145585737817	42
1	385	139.983731823413	43
1	393	143.429069938279	44
1	403	145.080635722886	45
1	411	149.642860857465	46
1	421	150.985424976887	47
1	431	155.163902502439	48
1	441	156.262827882929	49
1	445	157.338408491495	50
1	457	164.22996255781	51
1	469	167.3533657078	52
1	479	168.950702623988	53
1	485	171.379478478538	54
1	491	173.352387529521	55
1	497	174.695394404422	56
1	503	175.907567842004	57
1	509	177.085155737221	58
1	521	184.641091938395	59
1	525	186.057164099063	60
1	531	189.273023816004	61
1	543	192.500648557966	62
1	547	193.668982010236	63
1	557	194.873428577065	64
1	567	196.342852055418	65
1	575	197.381044041037	66
1	581	199.645735136233	67
2	7	1.33406556975	0
2	23	6.442039886762	1
2	33	9.555691402552	2
2	67	25.442569724896	3
2	81	28.901968006376	4
2	91	30.043842468486	5
2	101	31.372414334994	6
2	109	34.571582031656	7
2	119	39.598226392615	8
2	139	48.10019837014	9
2	151	51.61292897447	10
2	177	62.584283847681	11
2	187	67.373965990859	12
2	195	70.226836408024	13
2	201	72.12470251973	14
2	207	73.628384337384	15
2	217	75.123090785278	16
2	229	78.260954138306	17
2	239	80.224767599937	18
2	273	98.6982227628	19
2	291	103.771092421711	20
2	323	118.47177484205	21
2	333	119.509184666224	22
2	343	124.867073165523	23
2	353	129.518702754949	24
2	367	133.592587260508	25
2	395	143.453755268349	26
2	413	149.658503365916	27
2	423	151.003999984192	28
2	433	155.193637307269	29
2	447	157.362534886511	30
2	459	164.24198720599	31
2	471	167.365282675352	32
2	487	171.4031448964	33
2	493	173.372635105801	34
2	499	174.711447201733	35
2	505	175.930500622058	36
2	533	189.283645842948	37
2	549	193.680043125516	38
2	559	194.918678427847	39
2	569	196.36383480185	40
2	583	199.658432080701	41
3	9	1.34793008644	0
3	35	9.570922203804	1
3	69	25.463448282245	2
3	83	28.914417680052	3
3	93	30.05820700232	4
3	121	39.620334421274	5
3	141	48.131780758993	6
3	153	51.635966850706	7
3	209	73.639511238654	8
3	219	75.141177251687	9
3	231	78.284152558316	10
3	241	80.239830193791	11
3	275	98.709791761518	12
3	293	103.784464916621	13
3	325	118.487461965936	14
3	355	129.528811351711	15
3	369	133.631904347525	16
3	397	143.469578280988	17
3	415	149.683765047841	18
3	435	155.20693429939	19
3	461	164.295652562886	20
3	473	167.376892304125	21
3	535	189.29502519523	22
3	551	193.694591964811	23
3	561	194.936279525548	24
3	571	196.37402183602	25
3	585	199.681415952139	26
4	11	1.359607490352	0
4	37	9.582870007757	1
4	71	25.482942355414	2
4	85	28.97442397314	3
4	95	30.07451515997	4
4	123	39.642594628848	5
4	143	48.149846915897	6
4	211	73.654109515125	7
4	221	75.173729090496	8
4	233	78.31682221654	9
4	243	80.253079731105	10
4	327	118.506309261637	11
4	357	129.557680540501	12
4	371	133.645382118769	13
4	399	143.499130599468	14
4	417	149.704771005395	15
4	437	155.218272111563	16
4	463	164.306065156568	17
4	475	167.387025558367	18
4	537	189.312334205579	19
4	553	193.713485948505	20
4	563	194.95143447292	21
4	587	199.693700309022	22
5	12	1.369607490352	0
5	72	25.492942355414	1
5	86	28.98442397314	2
5	96	30.08451515997	3
5	124	39.652594628848	4
5	144	48.159846915897	5
5	212	73.664109515125	6
5	222	75.183729090496	7
5	234	78.32682221654	8
5	244	80.263079731105	9
5	328	118.516309261637	10
5	358	129.567680540501	11
5	372	133.655382118769	12
5	400	143.509130599468	13
5	418	149.714771005395	14
5	438	155.228272111563	15
5	464	164.316065156568	16
5	476	167.397025558367	17
5	538	189.322334205579	18
5	554	193.723485948505	19
5	564	194.96143447292	20
5	588	199.703700309022	21

