version 2
run General-0-20231004-18:41:38-10021
attr configname General
attr datetime 20231004-18:41:38
attr experiment General
attr inifile omnetpp.ini
attr iterationvars ""
attr iterationvarsf ""
attr measurement ""
attr network Multihop
attr processid 10021
attr repetition 0
attr replication #0
attr resultdir results
attr runnumber 0
attr seedset 0
param Multihop.node[*].transmissionTime "uniform(1s, 2s)"
param Multihop.node[*].delayTime "uniform(0.01s, 0.2s)"
param Multihop.node[*].processingTime exponential(0.01s)
param Multihop.node[0].lossProbability 0
param Multihop.node[1].lossProbability 0.5
param Multihop.node[2].lossProbability 0.4
param Multihop.node[3].lossProbability 0.3
param Multihop.node[4].lossProbability 0.2
param Multihop.node[5].lossProbability 0.1

vector 0 Multihop.node[0] txVector ETV
vector 1 Multihop.node[1] txVector ETV
vector 2 Multihop.node[2] txVector ETV
vector 3 Multihop.node[3] txVector ETV
vector 4 Multihop.node[4] txVector ETV
vector 5 Multihop.node[5] rxVector ETV
0	1	0.114274565438	0
0	11	1.707119181827	1
0	13	3.09150089005	2
0	23	4.389035495305	3
0	29	5.869012666707	4
0	31	7.206408828338	5
0	33	8.854580704895	6
0	43	10.222822242257	7
0	45	12.023732994756	8
0	49	13.544210475244	9
0	53	15.264843126832	10
0	63	16.802216355063	11
0	65	18.539134532984	12
0	69	19.755684889692	13
0	79	21.079825893815	14
0	81	22.529775883376	15
0	83	24.142839345222	16
0	87	26.045187923431	17
0	93	28.014996992031	18
0	95	29.373149162231	19
0	97	31.123835301099	20
0	99	32.731665967803	21
0	107	34.056713195357	22
0	109	35.709503514299	23
0	111	37.344562391357	24
0	115	39.339861956963	25
0	117	40.754230544975	26
0	119	42.228928050099	27
0	121	43.8524381561	28
0	123	45.190445773609	29
0	127	46.865198095867	30
0	129	48.643543577592	31
0	131	50.593114628994	32
0	135	52.255641497045	33
0	139	53.878487590307	34
0	149	55.850432589257	35
0	151	56.870420261592	36
0	153	58.312131183062	37
0	155	60.29171791354	38
0	157	61.651162382521	39
0	159	63.132055918759	40
0	161	64.820717105016	41
0	163	66.701192998167	42
0	165	68.619428471036	43
0	171	69.836250604203	44
0	175	71.345219565162	45
0	185	73.266377177162	46
0	189	74.913551315738	47
0	191	76.178281480054	48
0	195	77.576102231702	49
0	199	78.741042692287	50
0	203	79.887484455554	51
0	209	81.591221736351	52
0	219	83.347328427786	53
0	221	85.02738400067	54
0	227	86.476581732582	55
0	231	88.2436054352	56
0	241	89.919044512397	57
0	251	91.578712926552	58
0	253	93.053580448104	59
0	255	94.52371263651	60
0	259	96.239787170038	61
0	265	97.623249396056	62
0	267	98.72611275602	63
0	277	99.818486642631	64
0	279	101.139483886378	65
0	283	102.360746569073	66
0	285	103.458006495683	67
0	293	105.4420487311	68
0	301	106.541617815921	69
0	305	108.446265560182	70
0	309	109.954581010461	71
0	319	111.733632028641	72
0	329	113.716206985365	73
0	333	114.732834954818	74
0	335	116.497746652763	75
0	339	118.441870173512	76
0	343	119.781273989545	77
0	345	121.120259105999	78
0	347	122.299749373997	79
0	351	123.470735966767	80
0	353	125.345308928824	81
0	359	127.289428679812	82
0	361	129.073072927845	83
0	367	130.573099221642	84
0	377	132.565495617295	85
0	379	134.529985382993	86
0	381	136.084227819069	87
0	383	137.296618321052	88
0	385	138.519061544517	89
0	395	139.737810912382	90
0	397	140.823106479438	91
0	399	141.879524814038	92
0	401	143.367362520032	93
0	405	145.248367078675	94
0	407	146.866024997857	95
0	409	148.408523774779	96
0	411	150.263137357848	97
0	421	152.006971900191	98
0	423	153.47646908772	99
0	427	154.93248371112	100
0	429	156.069704131995	101
0	433	157.298923455019	102
0	435	159.203348432275	103
0	445	160.849133031982	104
0	449	162.274584569343	105
0	455	163.954464024239	106
0	461	165.743203445644	107
0	463	167.056895843082	108
0	467	169.014346699071	109
0	469	170.72593052064	110
0	471	171.879624824113	111
0	473	173.610067004644	112
0	475	175.256331439669	113
0	477	176.471212176214	114
0	483	177.657670394824	115
0	487	179.332517739925	116
0	491	180.507426612153	117
0	495	181.970576808629	118
0	497	183.175442570196	119
0	499	184.340401441631	120
0	501	185.465234502525	121
0	511	187.187315163276	122
0	521	188.93656957995	123
0	523	190.613832886637	124
0	525	191.676871179211	125
0	535	193.232520416453	126
0	537	194.414151622056	127
0	539	195.926545087554	128
0	549	197.506992218158	129
0	559	199.385861957053	130
1	3	0.142870607559	0
1	15	3.102084736741	1
1	25	4.404024215395	2
1	35	8.896082404182	3
1	47	12.045092384173	4
1	51	13.562933687194	5
1	55	15.289056773633	6
1	67	18.550587313257	7
1	71	19.767306254586	8
1	85	24.15388495748	9
1	89	26.065776264746	10
1	101	32.742057799367	11
1	113	37.363281549893	12
1	125	45.204261332043	13
1	133	50.603251274778	14
1	137	52.276839640703	15
1	141	53.909540803315	16
1	167	68.637756906197	17
1	173	69.871106427773	18
1	177	71.356087269985	19
1	187	73.294790001877	20
1	193	76.196329454052	21
1	197	77.590719540662	22
1	201	78.759473522608	23
1	205	79.900887922936	24
1	211	81.606265174417	25
1	223	85.075814066502	26
1	229	86.491888957548	27
1	233	88.256479539961	28
1	243	89.93666319011	29
1	257	94.537109283836	30
1	261	96.263616962103	31
1	269	98.740483036158	32
1	281	101.151006822631	33
1	287	103.471022154815	34
1	295	105.456392187659	35
1	303	106.55200064505	36
1	307	108.458090946201	37
1	311	109.984600875416	38
1	321	111.748304754305	39
1	331	113.728830278457	40
1	337	116.521609566283	41
1	341	118.45859477868	42
1	349	122.315975347437	43
1	355	125.364680316001	44
1	363	129.083589756903	45
1	369	130.586208899692	46
1	387	138.537491332271	47
1	403	143.41482946617	48
1	413	150.279649665167	49
1	425	153.510158269428	50
1	431	156.10103976487	51
1	437	159.217274162557	52
1	447	160.880790668791	53
1	451	162.29067501547	54
1	457	163.967070425533	55
1	465	167.073277729138	56
1	479	176.497692937946	57
1	485	177.670912385959	58
1	489	179.354707733377	59
1	493	180.535779246182	60
1	503	185.475543765441	61
1	513	187.210471425859	62
1	527	191.686964009455	63
1	541	195.952035204346	64
1	551	197.523770238179	65
2	5	0.172386060918	0
2	17	3.115268298149	1
2	27	4.432107908038	2
2	37	8.907594712719	3
2	57	15.300176235239	4
2	73	19.779820673907	5
2	91	26.077650525406	6
2	103	32.762116509419	7
2	143	53.926666639248	8
2	169	68.667789311422	9
2	179	71.36934067414	10
2	207	79.916566964471	11
2	213	81.638902510176	12
2	225	85.087049332976	13
2	235	88.270236928385	14
2	245	89.949283762527	15
2	263	96.294691438153	16
2	271	98.758508556016	17
2	289	103.48872292341	18
2	297	105.472726813836	19
2	313	109.999900904197	20
2	323	111.763753325586	21
2	357	125.383759956274	22
2	365	129.105599465968	23
2	371	130.607574864645	24
2	389	138.553508122136	25
2	415	150.300953220626	26
2	439	159.234607839289	27
2	453	162.307280046267	28
2	459	163.998297892072	29
2	481	176.521439737484	30
2	505	185.499287195585	31
2	515	187.220938303295	32
2	529	191.7148639055	33
2	543	195.971361322899	34
2	553	197.546342608135	35
3	7	0.20117570146	0
3	19	3.131762761632	1
3	39	8.938003634878	2
3	59	15.316593182259	3
3	75	19.7947062444	4
3	105	32.80404597584	5
3	145	53.937239908512	6
3	181	71.379434681647	7
3	215	81.659089097476	8
3	237	88.313880632916	9
3	247	89.96430687051	10
3	273	98.7688505902	11
3	291	103.504663658393	12
3	299	105.501124141687	13
3	315	110.011408814299	14
3	325	111.774272451108	15
3	373	130.63754658432	16
3	391	138.598652908941	17
3	417	150.320293823952	18
3	441	159.244608392808	19
3	507	185.510258872369	20
3	517	187.233284861788	21
3	531	191.766423616456	22
3	545	195.983825481121	23
3	555	197.563001033001	24
4	9	0.220945765724	0
4	21	3.158484873635	1
4	41	8.954420726605	2
4	61	15.328655215079	3
4	77	19.827995378142	4
4	147	53.953239377378	5
4	183	71.407907958157	6
4	217	81.691304166461	7
4	239	88.33275924702	8
4	249	89.983951406165	9
4	275	98.813575944993	10
4	317	110.021746682155	11
4	327	111.788821569556	12
4	375	130.661443354958	13
4	393	138.62006428797	14
4	419	150.342835856653	15
4	443	159.258346025746	16
4	509	185.522710853295	17
4	519	187.246666408936	18
4	533	191.78858052119	19
4	547	195.999898274007	20
4	557	197.585329837631	21
5	10	0.230945765724	0
5	22	3.168484873635	1
5	42	8.964420726605	2
5	62	15.338655215079	3
5	78	19.837995378142	4
5	148	53.963239377378	5
5	184	71.417907958157	6
5	218	81.701304166461	7
5	240	88.34275924702	8
5	250	89.993951406165	9
5	276	98.823575944993	10
5	328	111.798821569556	11
5	376	130.671443354958	12
5	394	138.63006428797	13
5	420	150.352835856653	14
5	444	159.268346025746	15
5	520	187.256666408936	16
5	534	191.79858052119	17
5	548	196.009898274007	18
5	558	197.595329837631	19

