version 2
run General-2-20230921-21:31:29-5391
attr configname General
attr datetime 20230921-21:31:29
attr experiment General
attr inifile omnetpp.ini
attr iterationvars ""
attr iterationvarsf ""
attr measurement ""
attr network Network1
attr processid 5391
attr repetition 2
attr replication #2
attr resultdir results
attr runnumber 2
attr seedset 2
param Network1.node[*].transmissionTime "uniform(1s, 2s)"
param Network1.node[*].delayTime "uniform(0.01s, 0.2s)"
param Network1.node[*].processingTime exponential(0.01s)
param Network1.node[*].lossProbability 0.1

vector 0 Network1.node[0] txVector ETV
vector 1 Network1.node[1] txVector ETV
vector 2 Network1.node[3] txVector ETV
vector 3 Network1.node[2] txVector ETV
vector 4 Network1.node[4] txVector ETV
vector 5 Network1.node[5] rxVector ETV
0	1	0.092839031499	0
0	3	1.277921112972	1
0	21	3.20946197656	2
0	39	5.027688698629	3
0	57	6.997321106279	4
0	75	8.574629176426	5
0	93	9.694113975642	6
0	111	11.047789349006	7
0	129	12.794420762006	8
0	147	14.220443289047	9
0	165	15.614376580361	10
0	183	17.117583497446	11
0	201	18.764597723279	12
0	219	20.339551260946	13
0	237	21.894090734441	14
0	255	23.430544432504	15
0	273	24.523440698413	16
0	291	25.798878562888	17
0	309	27.422150895949	18
0	311	29.241616271454	19
0	313	30.331986649445	20
0	331	31.690226957219	21
0	349	33.125747784058	22
0	367	34.257839542132	23
0	385	35.411405216919	24
0	403	37.253402900899	25
0	421	39.218183555657	26
0	439	40.56202345087	27
0	457	41.636284259165	28
0	475	43.583707600616	29
0	493	44.596944634354	30
0	511	46.238061196188	31
0	529	47.972746504721	32
0	547	49.309039475647	33
0	565	51.144005329599	34
0	579	52.185251280683	35
0	597	53.617384381377	36
0	615	54.748663604044	37
0	633	55.893084067869	38
0	651	57.852790063265	39
0	669	59.598328877957	40
0	687	60.774625888345	41
0	705	62.603181052272	42
0	723	63.703145993192	43
0	741	65.182326319412	44
0	743	66.282444391883	45
0	761	68.002661037742	46
0	779	69.783418559952	47
0	797	71.569159409514	48
0	815	72.604944387002	49
0	833	73.740148136409	50
0	851	75.14234255093	51
0	869	76.782990212337	52
0	887	77.947422713757	53
0	905	79.061591314402	54
0	923	80.304122444027	55
0	941	81.761683018896	56
0	959	82.862269503781	57
0	977	83.87524019882	58
0	995	85.704869368364	59
0	1013	87.509588009695	60
0	1031	88.905170002038	61
0	1049	90.61982524257	62
0	1051	92.21055005702	63
0	1069	93.368588669708	64
0	1083	94.678112630051	65
0	1101	95.798953379522	66
0	1119	97.03439010146	67
0	1137	98.394948524208	68
0	1155	99.88469237836	69
0	1173	101.023170894961	70
0	1191	102.693923785835	71
0	1209	104.630422885781	72
0	1227	105.954045965588	73
0	1245	107.27217691347	74
0	1263	109.194606232708	75
0	1281	110.304538431363	76
0	1299	112.257194160502	77
0	1317	113.486542217685	78
0	1335	114.488604458999	79
0	1353	116.376038723178	80
0	1371	117.435912756268	81
0	1389	119.154511432415	82
0	1407	120.193977155276	83
0	1409	121.940874904413	84
0	1427	123.528726140987	85
0	1445	124.675940594189	86
0	1463	125.784309798638	87
0	1481	127.219365108777	88
0	1499	129.212641682262	89
0	1517	130.408102744045	90
0	1535	131.609125640961	91
0	1553	133.159862726015	92
0	1571	135.029268321368	93
0	1589	136.632013596614	94
0	1591	138.472358391873	95
0	1609	139.701601331375	96
0	1627	141.390141336267	97
0	1645	142.790775276973	98
0	1647	144.08658851266	99
0	1665	145.803034868577	100
0	1683	147.12193431032	101
0	1701	149.018155293326	102
0	1719	150.561734138076	103
0	1737	151.707960991907	104
0	1755	152.894581751452	105
0	1773	154.221231822876	106
0	1791	155.346791457638	107
0	1809	156.576739237664	108
0	1827	157.991005098002	109
0	1845	159.018021008719	110
0	1863	160.938402995022	111
0	1881	162.564280710902	112
0	1899	164.201527245829	113
0	1917	166.048548603451	114
0	1935	167.48299610058	115
0	1953	168.846083795206	116
0	1955	170.217070000266	117
0	1973	171.66875089218	118
0	1991	173.618860802633	119
0	2009	174.862928951179	120
0	2027	176.38477036033	121
0	2045	178.042244235773	122
0	2063	179.261404101758	123
0	2065	180.628512850751	124
0	2083	182.60809180422	125
0	2101	183.721407124095	126
0	2119	185.243921688546	127
0	2137	186.274076606634	128
0	2155	187.725493484198	129
0	2173	188.97518210674	130
0	2191	190.882617248011	131
0	2209	192.342032105684	132
0	2211	193.410215421369	133
0	2229	195.026534890545	134
0	2235	196.15024147604	135
0	2253	197.988076552771	136
0	2255	199.859030569926	137
0	2257	201.066123098157	138
0	2275	203.031395229067	139
0	2293	204.649147554555	140
0	2311	205.835081025048	141
0	2329	207.21167296313	142
0	2347	209.034309374888	143
0	2365	210.797682155876	144
0	2367	211.834242271979	145
0	2385	213.678844737376	146
0	2403	215.4684571631	147
0	2421	216.945806794355	148
0	2439	218.291745534886	149
0	2441	220.114372153089	150
0	2459	221.811266089811	151
0	2477	223.788130428198	152
0	2495	224.862024065129	153
0	2513	226.661588798765	154
0	2531	227.795320787955	155
0	2549	229.341631180163	156
0	2567	230.900054404767	157
0	2585	231.923223934391	158
0	2599	233.166921804914	159
0	2617	234.427169319497	160
0	2635	235.997888865437	161
0	2653	237.013177975336	162
0	2671	238.294582987925	163
0	2689	239.398784444923	164
1	5	1.317434556699	0
1	5	1.317434556699	1
1	5	1.317434556699	2
1	23	3.230951331677	3
1	23	3.230951331677	4
1	23	3.230951331677	5
1	41	5.041212943669	6
1	41	5.041212943669	7
1	41	5.041212943669	8
1	59	7.009158211261	9
1	59	7.009158211261	10
1	59	7.009158211261	11
1	77	8.586237495023	12
1	77	8.586237495023	13
1	77	8.586237495023	14
1	95	9.710422133292	15
1	95	9.710422133292	16
1	95	9.710422133292	17
1	113	11.063437553065	18
1	113	11.063437553065	19
1	113	11.063437553065	20
1	131	12.808319744293	21
1	131	12.808319744293	22
1	131	12.808319744293	23
1	149	14.256554350138	24
1	149	14.256554350138	25
1	149	14.256554350138	26
1	167	15.638964725909	27
1	167	15.638964725909	28
1	167	15.638964725909	29
1	185	17.159247676588	30
1	185	17.159247676588	31
1	185	17.159247676588	32
1	203	18.781076467731	33
1	203	18.781076467731	34
1	203	18.781076467731	35
1	221	20.372103099755	36
1	221	20.372103099755	37
1	221	20.372103099755	38
1	239	21.907966769009	39
1	239	21.907966769009	40
1	239	21.907966769009	41
1	257	23.442469562306	42
1	257	23.442469562306	43
1	257	23.442469562306	44
1	275	24.535009697131	45
1	275	24.535009697131	46
1	275	24.535009697131	47
1	293	25.812251057798	48
1	293	25.812251057798	49
1	293	25.812251057798	50
1	315	30.34217832604	51
1	315	30.34217832604	52
1	315	30.34217832604	53
1	333	31.704727828202	54
1	333	31.704727828202	55
1	333	31.704727828202	56
1	351	33.135848003642	57
1	351	33.135848003642	58
1	351	33.135848003642	59
1	369	34.297156629149	60
1	369	34.297156629149	61
1	369	34.297156629149	62
1	387	35.421728433309	63
1	387	35.421728433309	64
1	387	35.421728433309	65
1	405	37.278557909047	66
1	405	37.278557909047	67
1	405	37.278557909047	68
1	423	39.236758562962	69
1	423	39.236758562962	70
1	423	39.236758562962	71
1	441	40.575966421898	72
1	441	40.575966421898	73
1	441	40.575966421898	74
1	459	41.648308907345	75
1	459	41.648308907345	76
1	459	41.648308907345	77
1	477	43.593723019851	78
1	477	43.593723019851	79
1	477	43.593723019851	80
1	495	44.609469104386	81
1	495	44.609469104386	82
1	495	44.609469104386	83
1	513	46.28438668502	84
1	513	46.28438668502	85
1	513	46.28438668502	86
1	531	47.987958268671	87
1	531	47.987958268671	88
1	531	47.987958268671	89
1	549	49.320100590927	90
1	549	49.320100590927	91
1	549	49.320100590927	92
1	567	51.157289080875	93
1	567	51.157289080875	94
1	567	51.157289080875	95
1	581	52.198640370273	96
1	581	52.198640370273	97
1	581	52.198640370273	98
1	599	53.656326771557	99
1	599	53.656326771557	100
1	599	53.656326771557	101
1	617	54.7767879328	102
1	617	54.7767879328	103
1	617	54.7767879328	104
1	635	55.92332742675	105
1	635	55.92332742675	106
1	635	55.92332742675	107
1	653	57.867335556454	108
1	653	57.867335556454	109
1	653	57.867335556454	110
1	671	59.617595845768	111
1	671	59.617595845768	112
1	671	59.617595845768	113
1	689	60.795192412737	114
1	689	60.795192412737	115
1	689	60.795192412737	116
1	707	62.613199896593	117
1	707	62.613199896593	118
1	707	62.613199896593	119
1	725	63.724373693975	120
1	725	63.724373693975	121
1	725	63.724373693975	122
1	745	66.304858393466	123
1	745	66.304858393466	124
1	745	66.304858393466	125
1	763	68.013515302684	126
1	763	68.013515302684	127
1	763	68.013515302684	128
1	781	69.803621109874	129
1	781	69.803621109874	130
1	781	69.803621109874	131
1	799	71.585866547173	132
1	799	71.585866547173	133
1	799	71.585866547173	134
1	817	72.618585643845	135
1	817	72.618585643845	136
1	817	72.618585643845	137
1	835	73.750842693487	138
1	835	73.750842693487	139
1	835	73.750842693487	140
1	853	75.16335149287	141
1	853	75.16335149287	142
1	853	75.16335149287	143
1	871	76.794774575908	144
1	871	76.794774575908	145
1	871	76.794774575908	146
1	889	77.976950262514	147
1	889	77.976950262514	148
1	889	77.976950262514	149
1	907	79.079030372244	150
1	907	79.079030372244	151
1	907	79.079030372244	152
1	925	80.325851297397	153
1	925	80.325851297397	154
1	925	80.325851297397	155
1	943	81.775328770362	156
1	943	81.775328770362	157
1	943	81.775328770362	158
1	961	82.873604670916	159
1	961	82.873604670916	160
1	961	82.873604670916	161
1	979	83.889057204939	162
1	979	83.889057204939	163
1	979	83.889057204939	164
1	997	85.716368984812	165
1	997	85.716368984812	166
1	997	85.716368984812	167
1	1015	87.530645501952	168
1	1015	87.530645501952	169
1	1015	87.530645501952	170
1	1033	88.927841405262	171
1	1033	88.927841405262	172
1	1033	88.927841405262	173
1	1053	92.229136024529	174
1	1053	92.229136024529	175
1	1053	92.229136024529	176
1	1071	93.378743659496	177
1	1071	93.378743659496	178
1	1071	93.378743659496	179
1	1085	94.690464758719	180
1	1085	94.690464758719	181
1	1085	94.690464758719	182
1	1103	95.837718187469	183
1	1103	95.837718187469	184
1	1103	95.837718187469	185
1	1121	97.047744641686	186
1	1121	97.047744641686	187
1	1121	97.047744641686	188
1	1139	98.425481704757	189
1	1139	98.425481704757	190
1	1139	98.425481704757	191
1	1157	99.898313723671	192
1	1157	99.898313723671	193
1	1157	99.898313723671	194
1	1175	101.036085242202	195
1	1175	101.036085242202	196
1	1175	101.036085242202	197
1	1193	102.714894452592	198
1	1193	102.714894452592	199
1	1193	102.714894452592	200
1	1211	104.644204214839	201
1	1211	104.644204214839	202
1	1211	104.644204214839	203
1	1229	105.985183354949	204
1	1229	105.985183354949	205
1	1229	105.985183354949	206
1	1247	107.299669976898	207
1	1247	107.299669976898	208
1	1247	107.299669976898	209
1	1265	109.210893821747	210
1	1265	109.210893821747	211
1	1265	109.210893821747	212
1	1283	110.324911692696	213
1	1283	110.324911692696	214
1	1283	110.324911692696	215
1	1301	112.267447786297	216
1	1301	112.267447786297	217
1	1301	112.267447786297	218
1	1319	113.497816181236	219
1	1319	113.497816181236	220
1	1319	113.497816181236	221
1	1337	114.503498440796	222
1	1337	114.503498440796	223
1	1337	114.503498440796	224
1	1355	116.392658893071	225
1	1355	116.392658893071	226
1	1355	116.392658893071	227
1	1373	117.459670917497	228
1	1373	117.459670917497	229
1	1373	117.459670917497	230
1	1391	119.166909775696	231
1	1391	119.166909775696	232
1	1391	119.166909775696	233
1	1411	121.956452933116	234
1	1411	121.956452933116	235
1	1411	121.956452933116	236
1	1429	123.540674365327	237
1	1429	123.540674365327	238
1	1429	123.540674365327	239
1	1447	124.693972422266	240
1	1447	124.693972422266	241
1	1447	124.693972422266	242
1	1465	125.802832267972	243
1	1465	125.802832267972	244
1	1465	125.802832267972	245
1	1483	127.239288766364	246
1	1483	127.239288766364	247
1	1483	127.239288766364	248
1	1501	129.226568107333	249
1	1501	129.226568107333	250
1	1501	129.226568107333	251
1	1519	130.422979672078	252
1	1519	130.422979672078	253
1	1519	130.422979672078	254
1	1537	131.623057339402	255
1	1537	131.623057339402	256
1	1537	131.623057339402	257
1	1555	133.1883531665	258
1	1555	133.1883531665	259
1	1555	133.1883531665	260
1	1573	135.051085850512	261
1	1573	135.051085850512	262
1	1573	135.051085850512	263
1	1593	138.48562196563	264
1	1593	138.48562196563	265
1	1593	138.48562196563	266
1	1611	139.716935212988	267
1	1611	139.716935212988	268
1	1611	139.716935212988	269
1	1629	141.402763255801	270
1	1629	141.402763255801	271
1	1629	141.402763255801	272
1	1649	144.09943932253	273
1	1649	144.09943932253	274
1	1649	144.09943932253	275
1	1667	145.826511690441	276
1	1667	145.826511690441	277
1	1667	145.826511690441	278
1	1685	147.133478825389	279
1	1685	147.133478825389	280
1	1685	147.133478825389	281
1	1703	149.029313371301	282
1	1703	149.029313371301	283
1	1703	149.029313371301	284
1	1721	150.573925499438	285
1	1721	150.573925499438	286
1	1721	150.573925499438	287
1	1739	151.724530747016	288
1	1739	151.724530747016	289
1	1739	151.724530747016	290
1	1757	152.927404728818	291
1	1757	152.927404728818	292
1	1757	152.927404728818	293
1	1775	154.272549850086	294
1	1775	154.272549850086	295
1	1775	154.272549850086	296
1	1793	155.375190467843	297
1	1793	155.375190467843	298
1	1793	155.375190467843	299
1	1811	156.629118172289	300
1	1811	156.629118172289	301
1	1811	156.629118172289	302
1	1829	158.004857817795	303
1	1829	158.004857817795	304
1	1829	158.004857817795	305
1	1847	159.03341890835	306
1	1847	159.03341890835	307
1	1847	159.03341890835	308
1	1865	160.952089075383	309
1	1865	160.952089075383	310
1	1865	160.952089075383	311
1	1883	162.583549842331	312
1	1883	162.583549842331	313
1	1883	162.583549842331	314
1	1901	164.222823999329	315
1	1901	164.222823999329	316
1	1901	164.222823999329	317
1	1919	166.070316032177	318
1	1919	166.070316032177	319
1	1919	166.070316032177	320
1	1937	167.492999984241	321
1	1937	167.492999984241	322
1	1937	167.492999984241	323
1	1957	170.227428032818	324
1	1957	170.227428032818	325
1	1957	170.227428032818	326
1	1975	171.694681700798	327
1	1975	171.694681700798	328
1	1975	171.694681700798	329
1	1993	173.649436837947	330
1	1993	173.649436837947	331
1	1993	173.649436837947	332
1	2011	174.875171378973	333
1	2011	174.875171378973	334
1	2011	174.875171378973	335
1	2029	176.421621801048	336
1	2029	176.421621801048	337
1	2029	176.421621801048	338
1	2047	178.063683950597	339
1	2047	178.063683950597	340
1	2047	178.063683950597	341
1	2067	180.647107208783	342
1	2067	180.647107208783	343
1	2067	180.647107208783	344
1	2085	182.619180464146	345
1	2085	182.619180464146	346
1	2085	182.619180464146	347
1	2103	183.743889953952	348
1	2103	183.743889953952	349
1	2103	183.743889953952	350
1	2121	185.256143690149	351
1	2121	185.256143690149	352
1	2121	185.256143690149	353
1	2139	186.294841387464	354
1	2139	186.294841387464	355
1	2139	186.294841387464	356
1	2157	187.756340637185	357
1	2157	187.756340637185	358
1	2157	187.756340637185	359
1	2175	188.998071267426	360
1	2175	188.998071267426	361
1	2175	188.998071267426	362
1	2193	190.905734050921	363
1	2193	190.905734050921	364
1	2193	190.905734050921	365
1	2213	193.461232936057	366
1	2213	193.461232936057	367
1	2213	193.461232936057	368
1	2231	195.063506272513	369
1	2231	195.063506272513	370
1	2231	195.063506272513	371
1	2237	196.167440499488	372
1	2237	196.167440499488	373
1	2237	196.167440499488	374
1	2259	201.081756691605	375
1	2259	201.081756691605	376
1	2259	201.081756691605	377
1	2277	203.042929103145	378
1	2277	203.042929103145	379
1	2277	203.042929103145	380
1	2295	204.672115376352	381
1	2295	204.672115376352	382
1	2295	204.672115376352	383
1	2313	205.86948302554	384
1	2313	205.86948302554	385
1	2313	205.86948302554	386
1	2331	207.237600455951	387
1	2331	207.237600455951	388
1	2331	207.237600455951	389
1	2349	209.048677056371	390
1	2349	209.048677056371	391
1	2349	209.048677056371	392
1	2369	211.84668879453	393
1	2369	211.84668879453	394
1	2369	211.84668879453	395
1	2387	213.691964983454	396
1	2387	213.691964983454	397
1	2387	213.691964983454	398
1	2405	215.480586699321	399
1	2405	215.480586699321	400
1	2405	215.480586699321	401
1	2423	216.957617259877	402
1	2423	216.957617259877	403
1	2423	216.957617259877	404
1	2443	220.124723958055	405
1	2443	220.124723958055	406
1	2443	220.124723958055	407
1	2461	221.840716779124	408
1	2461	221.840716779124	409
1	2461	221.840716779124	410
1	2479	223.824026025707	411
1	2479	223.824026025707	412
1	2479	223.824026025707	413
1	2497	224.885909196607	414
1	2497	224.885909196607	415
1	2497	224.885909196607	416
1	2515	226.689912979085	417
1	2515	226.689912979085	418
1	2515	226.689912979085	419
1	2533	227.808288246277	420
1	2533	227.808288246277	421
1	2533	227.808288246277	422
1	2551	229.354305384782	423
1	2551	229.354305384782	424
1	2551	229.354305384782	425
1	2569	230.9154427675	426
1	2569	230.9154427675	427
1	2569	230.9154427675	428
1	2587	231.933947872434	429
1	2587	231.933947872434	430
1	2587	231.933947872434	431
1	2601	233.192611656839	432
1	2601	233.192611656839	433
1	2601	233.192611656839	434
1	2619	234.453319539043	435
1	2619	234.453319539043	436
1	2619	234.453319539043	437
1	2637	236.011032718258	438
1	2637	236.011032718258	439
1	2637	236.011032718258	440
1	2655	237.047027987791	441
1	2655	237.047027987791	442
1	2655	237.047027987791	443
1	2673	238.308927911523	444
1	2673	238.308927911523	445
1	2673	238.308927911523	446
1	2691	239.413325879903	447
1	2691	239.413325879903	448
1	2691	239.413325879903	449
2	9	1.331444330932	0
2	9	1.331444330932	1
2	9	1.331444330932	2
2	27	3.242990132847	3
2	27	3.242990132847	4
2	27	3.242990132847	5
2	45	5.052228077606	6
2	45	5.052228077606	7
2	45	5.052228077606	8
2	64	7.029386028079	9
2	64	7.029386028079	10
2	64	7.029386028079	11
2	81	8.60316913411	12
2	81	8.60316913411	13
2	81	8.60316913411	14
2	99	9.728279323842	15
2	99	9.728279323842	16
2	99	9.728279323842	17
2	117	11.108698465689	18
2	117	11.108698465689	19
2	117	11.108698465689	20
2	143	12.859155833407	21
2	143	12.859155833407	22
2	143	12.859155833407	23
2	153	14.279592226374	24
2	153	14.279592226374	25
2	153	14.279592226374	26
2	171	15.653285977954	27
2	171	15.653285977954	28
2	171	15.653285977954	29
2	190	17.174639129196	30
2	190	17.174639129196	31
2	190	17.174639129196	32
2	208	18.807100378488	33
2	208	18.807100378488	34
2	208	18.807100378488	35
2	226	20.389872551778	36
2	226	20.389872551778	37
2	226	20.389872551778	38
2	243	21.920787893938	39
2	243	21.920787893938	40
2	243	21.920787893938	41
2	262	23.455806903478	42
2	262	23.455806903478	43
2	262	23.455806903478	44
2	280	24.555318619361	45
2	280	24.555318619361	46
2	280	24.555318619361	47
2	298	25.834446237876	48
2	298	25.834446237876	49
2	298	25.834446237876	50
2	327	30.383479237547	51
2	327	30.383479237547	52
2	327	30.383479237547	53
2	338	31.720608031853	54
2	338	31.720608031853	55
2	338	31.720608031853	56
2	359	33.174891239461	57
2	359	33.174891239461	58
2	359	33.174891239461	59
2	374	34.319735538126	60
2	374	34.319735538126	61
2	374	34.319735538126	62
2	391	35.441621920212	63
2	391	35.441621920212	64
2	391	35.441621920212	65
2	410	37.296844740218	66
2	410	37.296844740218	67
2	410	37.296844740218	68
2	431	39.26358034136	69
2	431	39.26358034136	70
2	431	39.26358034136	71
2	446	40.602232983161	72
2	446	40.602232983161	73
2	446	40.602232983161	74
2	468	41.692843762927	75
2	468	41.692843762927	76
2	468	41.692843762927	77
2	481	43.609267995713	78
2	481	43.609267995713	79
2	481	43.609267995713	80
2	499	44.620747890296	81
2	499	44.620747890296	82
2	499	44.620747890296	83
2	518	46.30000065954	84
2	518	46.30000065954	85
2	518	46.30000065954	86
2	535	47.999337620953	87
2	535	47.999337620953	88
2	535	47.999337620953	89
2	561	49.37507460231	90
2	561	49.37507460231	91
2	561	49.37507460231	92
2	585	52.214866311688	93
2	585	52.214866311688	94
2	585	52.214866311688	95
2	603	53.667334629485	96
2	603	53.667334629485	97
2	603	53.667334629485	98
2	625	54.831178149686	99
2	625	54.831178149686	100
2	625	54.831178149686	101
2	639	55.933772063967	102
2	639	55.933772063967	103
2	639	55.933772063967	104
2	658	57.881566450988	105
2	658	57.881566450988	106
2	658	57.881566450988	107
2	675	59.632951610902	108
2	675	59.632951610902	109
2	675	59.632951610902	110
2	697	60.826419991839	111
2	697	60.826419991839	112
2	697	60.826419991839	113
2	711	62.633836442999	114
2	711	62.633836442999	115
2	711	62.633836442999	116
2	733	63.749325768753	117
2	733	63.749325768753	118
2	733	63.749325768753	119
2	749	66.317024968881	120
2	749	66.317024968881	121
2	749	66.317024968881	122
2	767	68.024525565272	123
2	767	68.024525565272	124
2	767	68.024525565272	125
2	785	69.816705993128	126
2	785	69.816705993128	127
2	785	69.816705993128	128
2	803	71.603620126556	129
2	803	71.603620126556	130
2	803	71.603620126556	131
2	822	72.630258784641	132
2	822	72.630258784641	133
2	822	72.630258784641	134
2	843	73.79555431199	135
2	843	73.79555431199	136
2	843	73.79555431199	137
2	865	75.206440328123	138
2	865	75.206440328123	139
2	865	75.206440328123	140
2	875	76.812360362652	141
2	875	76.812360362652	142
2	875	76.812360362652	143
2	893	77.993412683664	144
2	893	77.993412683664	145
2	893	77.993412683664	146
2	911	79.105226719546	147
2	911	79.105226719546	148
2	911	79.105226719546	149
2	937	80.361725773441	150
2	937	80.361725773441	151
2	937	80.361725773441	152
2	947	81.793767928201	153
2	947	81.793767928201	154
2	947	81.793767928201	155
2	965	82.88565333661	156
2	965	82.88565333661	157
2	965	82.88565333661	158
2	988	83.921917607982	159
2	988	83.921917607982	160
2	988	83.921917607982	161
2	1001	85.728648989133	162
2	1001	85.728648989133	163
2	1001	85.728648989133	164
2	1019	87.554984581092	165
2	1019	87.554984581092	166
2	1019	87.554984581092	167
2	1038	88.950198170703	168
2	1038	88.950198170703	169
2	1038	88.950198170703	170
2	1057	92.239276038394	171
2	1057	92.239276038394	172
2	1057	92.239276038394	173
2	1079	93.426298205426	174
2	1079	93.426298205426	175
2	1079	93.426298205426	176
2	1089	94.714464101382	177
2	1089	94.714464101382	178
2	1089	94.714464101382	179
2	1112	95.865808407303	180
2	1112	95.865808407303	181
2	1112	95.865808407303	182
2	1130	97.077244888769	183
2	1130	97.077244888769	184
2	1130	97.077244888769	185
2	1143	98.4390607027	186
2	1143	98.4390607027	187
2	1143	98.4390607027	188
2	1165	99.922000360958	189
2	1165	99.922000360958	190
2	1165	99.922000360958	191
2	1179	101.050236445074	192
2	1179	101.050236445074	193
2	1179	101.050236445074	194
2	1197	102.727082447795	195
2	1197	102.727082447795	196
2	1197	102.727082447795	197
2	1215	104.667204451961	198
2	1215	104.667204451961	199
2	1215	104.667204451961	200
2	1233	106.003828588383	201
2	1233	106.003828588383	202
2	1233	106.003828588383	203
2	1259	107.354537137697	204
2	1259	107.354537137697	205
2	1259	107.354537137697	206
2	1270	109.231143090854	207
2	1270	109.231143090854	208
2	1270	109.231143090854	209
2	1287	110.339119383038	210
2	1287	110.339119383038	211
2	1287	110.339119383038	212
2	1306	112.285444991615	213
2	1306	112.285444991615	214
2	1306	112.285444991615	215
2	1324	113.514151158071	216
2	1324	113.514151158071	217
2	1324	113.514151158071	218
2	1341	114.520621335122	219
2	1341	114.520621335122	220
2	1341	114.520621335122	221
2	1360	116.406893384661	222
2	1360	116.406893384661	223
2	1360	116.406893384661	224
2	1378	117.477272423847	225
2	1378	117.477272423847	226
2	1378	117.477272423847	227
2	1395	119.178103642884	228
2	1395	119.178103642884	229
2	1395	119.178103642884	230
2	1416	121.969041653299	231
2	1416	121.969041653299	232
2	1416	121.969041653299	233
2	1433	123.553455219667	234
2	1433	123.553455219667	235
2	1433	123.553455219667	236
2	1451	124.704730799215	237
2	1451	124.704730799215	238
2	1451	124.704730799215	239
2	1474	125.83286778164	240
2	1474	125.83286778164	241
2	1474	125.83286778164	242
2	1487	127.252209027115	243
2	1487	127.252209027115	244
2	1487	127.252209027115	245
2	1513	129.267175789929	246
2	1513	129.267175789929	247
2	1513	129.267175789929	248
2	1523	130.433895414627	249
2	1523	130.433895414627	250
2	1523	130.433895414627	251
2	1541	131.637644943108	252
2	1541	131.637644943108	253
2	1541	131.637644943108	254
2	1560	133.21078552972	255
2	1560	133.21078552972	256
2	1560	133.21078552972	257
2	1577	135.065462073634	258
2	1577	135.065462073634	259
2	1577	135.065462073634	260
2	1598	138.504634904783	261
2	1598	138.504634904783	262
2	1598	138.504634904783	263
2	1615	139.732378502103	264
2	1615	139.732378502103	265
2	1615	139.732378502103	266
2	1641	141.441750362054	267
2	1641	141.441750362054	268
2	1641	141.441750362054	269
2	1654	144.125887004607	270
2	1654	144.125887004607	271
2	1654	144.125887004607	272
2	1671	145.844874096863	273
2	1671	145.844874096863	274
2	1671	145.844874096863	275
2	1693	147.163866747861	276
2	1693	147.163866747861	277
2	1693	147.163866747861	278
2	1707	149.043532137663	279
2	1707	149.043532137663	280
2	1707	149.043532137663	281
2	1725	150.588650314193	282
2	1725	150.588650314193	283
2	1725	150.588650314193	284
2	1743	151.747437013769	285
2	1743	151.747437013769	286
2	1743	151.747437013769	287
2	1761	152.937695709019	288
2	1761	152.937695709019	289
2	1761	152.937695709019	290
2	1780	154.285102796343	291
2	1780	154.285102796343	292
2	1780	154.285102796343	293
2	1798	155.395361581741	294
2	1798	155.395361581741	295
2	1798	155.395361581741	296
2	1815	156.642774669086	297
2	1815	156.642774669086	298
2	1815	156.642774669086	299
2	1833	158.015636386593	300
2	1833	158.015636386593	301
2	1833	158.015636386593	302
2	1851	159.054126063354	303
2	1851	159.054126063354	304
2	1851	159.054126063354	305
2	1870	160.969009701674	306
2	1870	160.969009701674	307
2	1870	160.969009701674	308
2	1887	162.594907449135	309
2	1887	162.594907449135	310
2	1887	162.594907449135	311
2	1905	164.238916578065	312
2	1905	164.238916578065	313
2	1905	164.238916578065	314
2	1923	166.082686184275	315
2	1923	166.082686184275	316
2	1923	166.082686184275	317
2	1941	167.514698902793	318
2	1941	167.514698902793	319
2	1941	167.514698902793	320
2	1961	170.238203086089	321
2	1961	170.238203086089	322
2	1961	170.238203086089	323
2	1980	171.715049177867	324
2	1980	171.715049177867	325
2	1980	171.715049177867	326
2	1997	173.675179598144	327
2	1997	173.675179598144	328
2	1997	173.675179598144	329
2	2016	174.888410323527	330
2	2016	174.888410323527	331
2	2016	174.888410323527	332
2	2034	176.439348446204	333
2	2034	176.439348446204	334
2	2034	176.439348446204	335
2	2052	178.082412137383	336
2	2052	178.082412137383	337
2	2052	178.082412137383	338
2	2071	180.675695882017	339
2	2071	180.675695882017	340
2	2071	180.675695882017	341
2	2093	182.64149488533	342
2	2093	182.64149488533	343
2	2093	182.64149488533	344
2	2107	183.762104117711	345
2	2107	183.762104117711	346
2	2107	183.762104117711	347
2	2125	185.266330815058	348
2	2125	185.266330815058	349
2	2125	185.266330815058	350
2	2143	186.311924715677	351
2	2143	186.311924715677	352
2	2143	186.311924715677	353
2	2162	187.775384402724	354
2	2162	187.775384402724	355
2	2162	187.775384402724	356
2	2179	189.008550942243	357
2	2179	189.008550942243	358
2	2179	189.008550942243	359
2	2201	190.939507168802	360
2	2201	190.939507168802	361
2	2201	190.939507168802	362
2	2225	193.513730322506	363
2	2225	193.513730322506	364
2	2225	193.513730322506	365
2	2241	196.201728608729	366
2	2241	196.201728608729	367
2	2241	196.201728608729	368
2	2263	201.095959771912	369
2	2263	201.095959771912	370
2	2263	201.095959771912	371
2	2282	203.058424149382	372
2	2282	203.058424149382	373
2	2282	203.058424149382	374
2	2303	204.701499067522	375
2	2303	204.701499067522	376
2	2303	204.701499067522	377
2	2318	205.890675204543	378
2	2318	205.890675204543	379
2	2318	205.890675204543	380
2	2335	207.249840342604	381
2	2335	207.249840342604	382
2	2335	207.249840342604	383
2	2354	209.067580782019	384
2	2354	209.067580782019	385
2	2354	209.067580782019	386
2	2377	211.876904257706	387
2	2377	211.876904257706	388
2	2377	211.876904257706	389
2	2392	213.708016507212	390
2	2392	213.708016507212	391
2	2392	213.708016507212	392
2	2409	215.492458112597	393
2	2409	215.492458112597	394
2	2409	215.492458112597	395
2	2431	217.000382970839	396
2	2431	217.000382970839	397
2	2431	217.000382970839	398
2	2448	220.147057279265	399
2	2448	220.147057279265	400
2	2448	220.147057279265	401
2	2466	221.865415079331	402
2	2466	221.865415079331	403
2	2466	221.865415079331	404
2	2484	223.843273431334	405
2	2484	223.843273431334	406
2	2484	223.843273431334	407
2	2501	224.897109932048	408
2	2501	224.897109932048	409
2	2501	224.897109932048	410
2	2519	226.700993698297	411
2	2519	226.700993698297	412
2	2519	226.700993698297	413
2	2537	227.829182271733	414
2	2537	227.829182271733	415
2	2537	227.829182271733	416
2	2555	229.370002714073	417
2	2555	229.370002714073	418
2	2555	229.370002714073	419
2	2577	230.951569435192	420
2	2577	230.951569435192	421
2	2577	230.951569435192	422
2	2595	231.976202879825	423
2	2595	231.976202879825	424
2	2595	231.976202879825	425
2	2605	233.204338874445	426
2	2605	233.204338874445	427
2	2605	233.204338874445	428
2	2624	234.470303144506	429
2	2624	234.470303144506	430
2	2624	234.470303144506	431
2	2641	236.021810788949	432
2	2641	236.021810788949	433
2	2641	236.021810788949	434
2	2660	237.061661917088	435
2	2660	237.061661917088	436
2	2660	237.061661917088	437
2	2677	238.321616800357	438
2	2677	238.321616800357	439
2	2677	238.321616800357	440
2	2695	239.424630904928	441
2	2695	239.424630904928	442
2	2695	239.424630904928	443
3	10	1.332888171871	0
3	10	1.332888171871	1
3	10	1.332888171871	2
3	28	3.24815812129	3
3	28	3.24815812129	4
3	28	3.24815812129	5
3	46	5.05680124543	6
3	46	5.05680124543	7
3	46	5.05680124543	8
3	63	7.021411460887	9
3	63	7.021411460887	10
3	63	7.021411460887	11
3	89	8.629634120604	12
3	89	8.629634120604	13
3	89	8.629634120604	14
3	104	9.751157389939	15
3	104	9.751157389939	16
3	104	9.751157389939	17
3	121	11.124353854616	18
3	121	11.124353854616	19
3	121	11.124353854616	20
3	135	12.818787295788	21
3	135	12.818787295788	22
3	135	12.818787295788	23
3	161	14.305557687252	24
3	161	14.305557687252	25
3	161	14.305557687252	26
3	172	15.654324550669	27
3	172	15.654324550669	28
3	172	15.654324550669	29
3	189	17.171663753123	30
3	189	17.171663753123	31
3	189	17.171663753123	32
3	207	18.80489064557	33
3	207	18.80489064557	34
3	207	18.80489064557	35
3	225	20.387545811516	36
3	225	20.387545811516	37
3	225	20.387545811516	38
3	244	21.929990530559	39
3	244	21.929990530559	40
3	244	21.929990530559	41
3	261	23.453470949035	42
3	261	23.453470949035	43
3	261	23.453470949035	44
3	279	24.547650892423	45
3	279	24.547650892423	46
3	279	24.547650892423	47
3	297	25.824859174864	48
3	297	25.824859174864	49
3	297	25.824859174864	50
3	319	30.354385130839	51
3	319	30.354385130839	52
3	319	30.354385130839	53
3	337	31.720268070373	54
3	337	31.720268070373	55
3	337	31.720268070373	56
3	355	33.160858458789	57
3	355	33.160858458789	58
3	355	33.160858458789	59
3	373	34.313036772998	60
3	373	34.313036772998	61
3	373	34.313036772998	62
3	395	35.46006799989	63
3	395	35.46006799989	64
3	395	35.46006799989	65
3	409	37.293967944118	66
3	409	37.293967944118	67
3	409	37.293967944118	68
3	427	39.251014680225	69
3	427	39.251014680225	70
3	427	39.251014680225	71
3	445	40.59908497947	72
3	445	40.59908497947	73
3	445	40.59908497947	74
3	463	41.672999567034	75
3	463	41.672999567034	76
3	463	41.672999567034	77
3	486	43.634484987551	78
3	486	43.634484987551	79
3	486	43.634484987551	80
3	503	44.633838046412	81
3	503	44.633838046412	82
3	503	44.633838046412	83
3	517	46.296604368686	84
3	517	46.296604368686	85
3	517	46.296604368686	86
3	540	48.015833448398	87
3	540	48.015833448398	88
3	540	48.015833448398	89
3	553	49.334012524057	90
3	553	49.334012524057	91
3	553	49.334012524057	92
3	571	51.177531700737	93
3	571	51.177531700737	94
3	571	51.177531700737	95
3	586	52.216119327796	96
3	586	52.216119327796	97
3	586	52.216119327796	98
3	604	53.670993150698	99
3	604	53.670993150698	100
3	604	53.670993150698	101
3	621	54.810148954136	102
3	621	54.810148954136	103
3	621	54.810148954136	104
3	640	55.940965305749	105
3	640	55.940965305749	106
3	640	55.940965305749	107
3	657	57.879207115032	108
3	657	57.879207115032	109
3	657	57.879207115032	110
3	676	59.633836019396	111
3	676	59.633836019396	112
3	676	59.633836019396	113
3	693	60.808925239435	114
3	693	60.808925239435	115
3	693	60.808925239435	116
3	715	62.650611526011	117
3	715	62.650611526011	118
3	715	62.650611526011	119
3	729	63.738031783208	120
3	729	63.738031783208	121
3	729	63.738031783208	122
3	750	66.319564534545	123
3	750	66.319564534545	124
3	750	66.319564534545	125
3	775	68.056860087573	126
3	775	68.056860087573	127
3	775	68.056860087573	128
3	786	69.822126427417	129
3	786	69.822126427417	130
3	786	69.822126427417	131
3	804	71.604141505422	132
3	804	71.604141505422	133
3	804	71.604141505422	134
3	821	72.628934410402	135
3	821	72.628934410402	136
3	821	72.628934410402	137
3	839	73.778936788644	138
3	839	73.778936788644	139
3	839	73.778936788644	140
3	857	75.174389000012	141
3	857	75.174389000012	142
3	857	75.174389000012	143
3	876	76.812915725162	144
3	876	76.812915725162	145
3	876	76.812915725162	146
3	894	77.994864787272	147
3	894	77.994864787272	148
3	894	77.994864787272	149
3	916	79.120937651019	150
3	916	79.120937651019	151
3	916	79.120937651019	152
3	929	80.335884707575	153
3	929	80.335884707575	154
3	929	80.335884707575	155
3	951	81.80971020188	156
3	951	81.80971020188	157
3	951	81.80971020188	158
3	966	82.893726175409	159
3	966	82.893726175409	160
3	966	82.893726175409	161
3	983	83.899989879789	162
3	983	83.899989879789	163
3	983	83.899989879789	164
3	1002	85.729469486471	165
3	1002	85.729469486471	166
3	1002	85.729469486471	167
3	1027	87.583569478692	168
3	1027	87.583569478692	169
3	1027	87.583569478692	170
3	1037	88.941493044665	171
3	1037	88.941493044665	172
3	1037	88.941493044665	173
3	1058	92.241887820026	174
3	1058	92.241887820026	175
3	1058	92.241887820026	176
3	1075	93.392445565114	177
3	1075	93.392445565114	178
3	1075	93.392445565114	179
3	1090	94.717353375586	180
3	1090	94.717353375586	181
3	1090	94.717353375586	182
3	1107	95.848631181612	183
3	1107	95.848631181612	184
3	1107	95.848631181612	185
3	1125	97.061362748481	186
3	1125	97.061362748481	187
3	1125	97.061362748481	188
3	1144	98.446811985707	189
3	1144	98.446811985707	190
3	1144	98.446811985707	191
3	1161	99.908369602647	192
3	1161	99.908369602647	193
3	1161	99.908369602647	194
3	1180	101.052290486549	195
3	1180	101.052290486549	196
3	1180	101.052290486549	197
3	1198	102.733669432513	198
3	1198	102.733669432513	199
3	1198	102.733669432513	200
3	1216	104.676823815735	201
3	1216	104.676823815735	202
3	1216	104.676823815735	203
3	1234	106.008906149555	204
3	1234	106.008906149555	205
3	1234	106.008906149555	206
3	1251	107.311171430068	207
3	1251	107.311171430068	208
3	1251	107.311171430068	209
3	1269	109.222100074163	210
3	1269	109.222100074163	211
3	1269	109.222100074163	212
3	1292	110.350941909245	213
3	1292	110.350941909245	214
3	1292	110.350941909245	215
3	1305	112.28329328865	216
3	1305	112.28329328865	217
3	1305	112.28329328865	218
3	1323	113.510050071326	219
3	1323	113.510050071326	220
3	1323	113.510050071326	221
3	1345	114.537161506939	222
3	1345	114.537161506939	223
3	1345	114.537161506939	224
3	1359	116.405091286725	225
3	1359	116.405091286725	226
3	1359	116.405091286725	227
3	1377	117.473077363699	228
3	1377	117.473077363699	229
3	1377	117.473077363699	230
3	1396	119.186181951214	231
3	1396	119.186181951214	232
3	1396	119.186181951214	233
3	1415	121.966568608459	234
3	1415	121.966568608459	235
3	1415	121.966568608459	236
3	1441	123.583296105692	237
3	1441	123.583296105692	238
3	1441	123.583296105692	239
3	1455	124.715495949381	240
3	1455	124.715495949381	241
3	1455	124.715495949381	242
3	1469	125.816545440499	243
3	1469	125.816545440499	244
3	1469	125.816545440499	245
3	1492	127.279618113885	246
3	1492	127.279618113885	247
3	1492	127.279618113885	248
3	1505	129.24237423808	249
3	1505	129.24237423808	250
3	1505	129.24237423808	251
3	1527	130.462472925979	252
3	1527	130.462472925979	253
3	1527	130.462472925979	254
3	1542	131.639209782977	255
3	1542	131.639209782977	256
3	1542	131.639209782977	257
3	1559	133.206182198618	258
3	1559	133.206182198618	259
3	1559	133.206182198618	260
3	1581	135.079686619774	261
3	1581	135.079686619774	262
3	1581	135.079686619774	263
3	1597	138.501885105106	264
3	1597	138.501885105106	265
3	1597	138.501885105106	266
3	1616	139.734631371385	267
3	1616	139.734631371385	268
3	1616	139.734631371385	269
3	1633	141.414625786934	270
3	1633	141.414625786934	271
3	1633	141.414625786934	272
3	1653	144.118272343499	273
3	1653	144.118272343499	274
3	1653	144.118272343499	275
3	1672	145.849733698703	276
3	1672	145.849733698703	277
3	1672	145.849733698703	278
3	1689	147.153484001438	279
3	1689	147.153484001438	280
3	1689	147.153484001438	281
3	1708	149.046071481173	282
3	1708	149.046071481173	283
3	1708	149.046071481173	284
3	1726	150.589899124111	285
3	1726	150.589899124111	286
3	1726	150.589899124111	287
3	1747	151.760738365825	288
3	1747	151.760738365825	289
3	1747	151.760738365825	290
3	1765	152.948074332123	291
3	1765	152.948074332123	292
3	1765	152.948074332123	293
3	1779	154.282961313694	294
3	1779	154.282961313694	295
3	1779	154.282961313694	296
3	1797	155.386912539518	297
3	1797	155.386912539518	298
3	1797	155.386912539518	299
3	1816	156.646630311772	300
3	1816	156.646630311772	301
3	1816	156.646630311772	302
3	1834	158.01846817975	303
3	1834	158.01846817975	304
3	1834	158.01846817975	305
3	1855	159.066532521082	306
3	1855	159.066532521082	307
3	1855	159.066532521082	308
3	1869	160.963806610742	309
3	1869	160.963806610742	310
3	1869	160.963806610742	311
3	1895	162.616411445685	312
3	1895	162.616411445685	313
3	1895	162.616411445685	314
3	1913	164.291951411367	315
3	1913	164.291951411367	316
3	1913	164.291951411367	317
3	1924	166.090130205664	318
3	1924	166.090130205664	319
3	1924	166.090130205664	320
3	1942	167.515738857621	321
3	1942	167.515738857621	322
3	1942	167.515738857621	323
3	1962	170.239428842326	324
3	1962	170.239428842326	325
3	1962	170.239428842326	326
3	1979	171.70926270766	327
3	1979	171.70926270766	328
3	1979	171.70926270766	329
3	1998	173.678623666665	330
3	1998	173.678623666665	331
3	1998	173.678623666665	332
3	2015	174.886780009001	333
3	2015	174.886780009001	334
3	2015	174.886780009001	335
3	2033	176.433416710314	336
3	2033	176.433416710314	337
3	2033	176.433416710314	338
3	2051	178.077518431048	339
3	2051	178.077518431048	340
3	2051	178.077518431048	341
3	2072	180.684098133852	342
3	2072	180.684098133852	343
3	2072	180.684098133852	344
3	2089	182.630586171949	345
3	2089	182.630586171949	346
3	2089	182.630586171949	347
3	2111	183.775252926131	348
3	2111	183.775252926131	349
3	2111	183.775252926131	350
3	2129	185.281288149328	351
3	2129	185.281288149328	352
3	2129	185.281288149328	353
3	2147	186.323856443431	354
3	2147	186.323856443431	355
3	2147	186.323856443431	356
3	2161	187.774732283292	357
3	2161	187.774732283292	358
3	2161	187.774732283292	359
3	2183	189.022180986284	360
3	2183	189.022180986284	361
3	2183	189.022180986284	362
3	2197	190.917027001135	363
3	2197	190.917027001135	364
3	2197	190.917027001135	365
3	2217	193.477970664728	366
3	2217	193.477970664728	367
3	2217	193.477970664728	368
3	2245	196.213483609319	369
3	2245	196.213483609319	370
3	2245	196.213483609319	371
3	2264	201.097540729343	372
3	2264	201.097540729343	373
3	2264	201.097540729343	374
3	2281	203.05450887897	375
3	2281	203.05450887897	376
3	2281	203.05450887897	377
3	2299	204.685046433167	378
3	2299	204.685046433167	379
3	2299	204.685046433167	380
3	2317	205.883184038118	381
3	2317	205.883184038118	382
3	2317	205.883184038118	383
3	2336	207.257151137303	384
3	2336	207.257151137303	385
3	2336	207.257151137303	386
3	2353	209.060727255201	387
3	2353	209.060727255201	388
3	2353	209.060727255201	389
3	2373	211.862673891799	390
3	2373	211.862673891799	391
3	2373	211.862673891799	392
3	2391	213.70273879695	393
3	2391	213.70273879695	394
3	2391	213.70273879695	395
3	2410	215.494365948941	396
3	2410	215.494365948941	397
3	2410	215.494365948941	398
3	2427	216.978856227903	399
3	2427	216.978856227903	400
3	2427	216.978856227903	401
3	2447	220.1371993217	402
3	2447	220.1371993217	403
3	2447	220.1371993217	404
3	2465	221.855884864254	405
3	2465	221.855884864254	406
3	2465	221.855884864254	407
3	2483	223.839349876263	408
3	2483	223.839349876263	409
3	2483	223.839349876263	410
3	2505	224.9085940133	411
3	2505	224.9085940133	412
3	2505	224.9085940133	413
3	2523	226.722500946804	414
3	2523	226.722500946804	415
3	2523	226.722500946804	416
3	2538	227.837378357018	417
3	2538	227.837378357018	418
3	2538	227.837378357018	419
3	2556	229.375174287725	420
3	2556	229.375174287725	421
3	2556	229.375174287725	422
3	2573	230.926131896009	423
3	2573	230.926131896009	424
3	2573	230.926131896009	425
3	2591	231.944113879007	426
3	2591	231.944113879007	427
3	2591	231.944113879007	428
3	2606	233.211492329215	429
3	2606	233.211492329215	430
3	2606	233.211492329215	431
3	2623	234.469317179296	432
3	2623	234.469317179296	433
3	2623	234.469317179296	434
3	2646	236.03270540962	435
3	2646	236.03270540962	436
3	2646	236.03270540962	437
3	2659	237.05973061476	438
3	2659	237.05973061476	439
3	2659	237.05973061476	440
3	2678	238.326459956059	441
3	2678	238.326459956059	442
3	2678	238.326459956059	443
3	2703	239.45248667949	444
3	2703	239.45248667949	445
3	2703	239.45248667949	446
4	17	1.351101004583	0
4	17	1.351101004583	1
4	17	1.351101004583	2
4	35	3.272229927159	3
4	35	3.272229927159	4
4	35	3.272229927159	5
4	53	5.071309946872	6
4	53	5.071309946872	7
4	53	5.071309946872	8
4	71	7.047166162095	9
4	71	7.047166162095	10
4	71	7.047166162095	11
4	85	8.617348767826	12
4	85	8.617348767826	13
4	85	8.617348767826	14
4	103	9.742841789111	15
4	103	9.742841789111	16
4	103	9.742841789111	17
4	122	11.127906904468	18
4	122	11.127906904468	19
4	122	11.127906904468	20
4	139	12.836073604471	21
4	139	12.836073604471	22
4	139	12.836073604471	23
4	157	14.292730964739	24
4	157	14.292730964739	25
4	157	14.292730964739	26
4	179	15.699372139195	27
4	179	15.699372139195	28
4	179	15.699372139195	29
4	197	17.19064080734	30
4	197	17.19064080734	31
4	197	17.19064080734	32
4	215	18.819488922041	33
4	215	18.819488922041	34
4	215	18.819488922041	35
4	230	20.397954148494	36
4	230	20.397954148494	37
4	230	20.397954148494	38
4	248	21.931959786449	39
4	248	21.931959786449	40
4	248	21.931959786449	41
4	269	23.471017370832	42
4	269	23.471017370832	43
4	269	23.471017370832	44
4	284	24.560126407245	45
4	284	24.560126407245	46
4	284	24.560126407245	47
4	305	25.849398807018	48
4	305	25.849398807018	49
4	305	25.849398807018	50
4	323	30.370048322147	51
4	323	30.370048322147	52
4	323	30.370048322147	53
4	345	31.7442996663	54
4	345	31.7442996663	55
4	345	31.7442996663	56
4	363	33.20226548378	57
4	363	33.20226548378	58
4	363	33.20226548378	59
4	381	34.337494258822	60
4	381	34.337494258822	61
4	381	34.337494258822	62
4	399	35.476476742272	63
4	399	35.476476742272	64
4	399	35.476476742272	65
4	417	37.309610452569	66
4	417	37.309610452569	67
4	417	37.309610452569	68
4	435	39.276877333481	69
4	435	39.276877333481	70
4	435	39.276877333481	71
4	453	40.648729326791	72
4	453	40.648729326791	73
4	453	40.648729326791	74
4	467	41.68559518225	75
4	467	41.68559518225	76
4	467	41.68559518225	77
4	485	43.625658536984	78
4	485	43.625658536984	79
4	485	43.625658536984	80
4	504	44.636942005559	81
4	504	44.636942005559	82
4	504	44.636942005559	83
4	525	46.319260539582	84
4	525	46.319260539582	85
4	525	46.319260539582	86
4	539	48.010256444699	87
4	539	48.010256444699	88
4	539	48.010256444699	89
4	557	49.348567798286	90
4	557	49.348567798286	91
4	557	49.348567798286	92
4	575	51.197297011537	93
4	575	51.197297011537	94
4	575	51.197297011537	95
4	593	52.227887097323	96
4	593	52.227887097323	97
4	593	52.227887097323	98
4	611	53.705880535847	99
4	611	53.705880535847	100
4	611	53.705880535847	101
4	629	54.854295772601	102
4	629	54.854295772601	103
4	629	54.854295772601	104
4	647	55.9591040049	105
4	647	55.9591040049	106
4	647	55.9591040049	107
4	665	57.892127320886	108
4	665	57.892127320886	109
4	665	57.892127320886	110
4	683	59.646860260742	111
4	683	59.646860260742	112
4	683	59.646860260742	113
4	701	60.856451765602	114
4	701	60.856451765602	115
4	701	60.856451765602	116
4	719	62.671628647986	117
4	719	62.671628647986	118
4	719	62.671628647986	119
4	737	63.786517358896	120
4	737	63.786517358896	121
4	737	63.786517358896	122
4	757	66.330715465506	123
4	757	66.330715465506	124
4	757	66.330715465506	125
4	771	68.046375084613	126
4	771	68.046375084613	127
4	771	68.046375084613	128
4	790	69.830126326685	129
4	790	69.830126326685	130
4	790	69.830126326685	131
4	811	71.617197639877	132
4	811	71.617197639877	133
4	811	71.617197639877	134
4	829	72.64664132161	135
4	829	72.64664132161	136
4	829	72.64664132161	137
4	847	73.813243107279	138
4	847	73.813243107279	139
4	847	73.813243107279	140
4	861	75.190580678753	141
4	861	75.190580678753	142
4	861	75.190580678753	143
4	883	76.830265514862	144
4	883	76.830265514862	145
4	883	76.830265514862	146
4	901	78.014278588278	147
4	901	78.014278588278	148
4	901	78.014278588278	149
4	915	79.119866698118	150
4	915	79.119866698118	151
4	915	79.119866698118	152
4	933	80.350347989874	153
4	933	80.350347989874	154
4	933	80.350347989874	155
4	955	81.821758084739	156
4	955	81.821758084739	157
4	955	81.821758084739	158
4	973	82.906273496419	159
4	973	82.906273496419	160
4	973	82.906273496419	161
4	987	83.915961433991	162
4	987	83.915961433991	163
4	987	83.915961433991	164
4	1009	85.757092217319	165
4	1009	85.757092217319	166
4	1009	85.757092217319	167
4	1023	87.567178838993	168
4	1023	87.567178838993	169
4	1023	87.567178838993	170
4	1042	88.956148453973	171
4	1042	88.956148453973	172
4	1042	88.956148453973	173
4	1065	92.268309568701	174
4	1065	92.268309568701	175
4	1065	92.268309568701	176
4	1097	94.731662826133	177
4	1097	94.731662826133	178
4	1097	94.731662826133	179
4	1111	95.864465199736	180
4	1111	95.864465199736	181
4	1111	95.864465199736	182
4	1129	97.072989442604	183
4	1129	97.072989442604	184
4	1129	97.072989442604	185
4	1151	98.51271227415	186
4	1151	98.51271227415	187
4	1151	98.51271227415	188
4	1169	99.934356990999	189
4	1169	99.934356990999	190
4	1169	99.934356990999	191
4	1187	101.077163528842	192
4	1187	101.077163528842	193
4	1187	101.077163528842	194
4	1202	102.738532090907	195
4	1202	102.738532090907	196
4	1202	102.738532090907	197
4	1223	104.700101073343	198
4	1223	104.700101073343	199
4	1223	104.700101073343	200
4	1241	106.026452203379	201
4	1241	106.026452203379	202
4	1241	106.026452203379	203
4	1255	107.322836945143	204
4	1255	107.322836945143	205
4	1255	107.322836945143	206
4	1274	109.23870916933	207
4	1274	109.23870916933	208
4	1274	109.23870916933	209
4	1291	110.350185329129	210
4	1291	110.350185329129	211
4	1291	110.350185329129	212
4	1313	112.300399288356	213
4	1313	112.300399288356	214
4	1313	112.300399288356	215
4	1331	113.555546465703	216
4	1331	113.555546465703	217
4	1331	113.555546465703	218
4	1349	114.550531102477	219
4	1349	114.550531102477	220
4	1349	114.550531102477	221
4	1367	116.420303334469	222
4	1367	116.420303334469	223
4	1367	116.420303334469	224
4	1385	117.490733588672	225
4	1385	117.490733588672	226
4	1385	117.490733588672	227
4	1403	119.198502364533	228
4	1403	119.198502364533	229
4	1403	119.198502364533	230
4	1423	121.987387956184	231
4	1423	121.987387956184	232
4	1423	121.987387956184	233
4	1437	123.564515419759	234
4	1437	123.564515419759	235
4	1437	123.564515419759	236
4	1459	124.739237473274	237
4	1459	124.739237473274	238
4	1459	124.739237473274	239
4	1473	125.828941175341	240
4	1473	125.828941175341	241
4	1473	125.828941175341	242
4	1491	127.278383817492	243
4	1491	127.278383817492	244
4	1491	127.278383817492	245
4	1509	129.253549087327	246
4	1509	129.253549087327	247
4	1509	129.253549087327	248
4	1528	130.472413343238	249
4	1528	130.472413343238	250
4	1528	130.472413343238	251
4	1549	131.671782555836	252
4	1549	131.671782555836	253
4	1549	131.671782555836	254
4	1567	133.228413770166	255
4	1567	133.228413770166	256
4	1567	133.228413770166	257
4	1582	135.087567931186	258
4	1582	135.087567931186	259
4	1582	135.087567931186	260
4	1602	138.514627892645	261
4	1602	138.514627892645	262
4	1602	138.514627892645	263
4	1623	139.744890865415	264
4	1623	139.744890865415	265
4	1623	139.744890865415	266
4	1637	141.429924635234	267
4	1637	141.429924635234	268
4	1637	141.429924635234	269
4	1661	144.173168827	270
4	1661	144.173168827	271
4	1661	144.173168827	272
4	1679	145.867626898971	273
4	1679	145.867626898971	274
4	1679	145.867626898971	275
4	1694	147.168688288413	276
4	1694	147.168688288413	277
4	1694	147.168688288413	278
4	1715	149.063877542528	279
4	1715	149.063877542528	280
4	1715	149.063877542528	281
4	1733	150.611784299589	282
4	1733	150.611784299589	283
4	1733	150.611784299589	284
4	1748	151.762552842941	285
4	1748	151.762552842941	286
4	1748	151.762552842941	287
4	1769	152.958729852126	288
4	1769	152.958729852126	289
4	1769	152.958729852126	290
4	1787	154.307885654039	291
4	1787	154.307885654039	292
4	1787	154.307885654039	293
4	1805	155.423018557778	294
4	1805	155.423018557778	295
4	1805	155.423018557778	296
4	1820	156.654529572198	297
4	1820	156.654529572198	298
4	1820	156.654529572198	299
4	1841	158.048041272415	300
4	1841	158.048041272415	301
4	1841	158.048041272415	302
4	1856	159.074148280641	303
4	1856	159.074148280641	304
4	1856	159.074148280641	305
4	1877	160.979856700991	306
4	1877	160.979856700991	307
4	1877	160.979856700991	308
4	1891	162.605788879718	309
4	1891	162.605788879718	310
4	1891	162.605788879718	311
4	1909	164.2497600704	312
4	1909	164.2497600704	313
4	1909	164.2497600704	314
4	1928	166.097815275153	315
4	1928	166.097815275153	316
4	1928	166.097815275153	317
4	1949	167.553882383496	318
4	1949	167.553882383496	319
4	1949	167.553882383496	320
4	1969	170.254893583156	321
4	1969	170.254893583156	322
4	1969	170.254893583156	323
4	1987	171.760169360412	324
4	1987	171.760169360412	325
4	1987	171.760169360412	326
4	2005	173.69351701017	327
4	2005	173.69351701017	328
4	2005	173.69351701017	329
4	2023	174.90866013094	330
4	2023	174.90866013094	331
4	2023	174.90866013094	332
4	2041	176.467093688254	333
4	2041	176.467093688254	334
4	2041	176.467093688254	335
4	2056	178.091716403429	336
4	2056	178.091716403429	337
4	2056	178.091716403429	338
4	2079	180.694657446143	339
4	2079	180.694657446143	340
4	2079	180.694657446143	341
4	2097	182.652436411531	342
4	2097	182.652436411531	343
4	2097	182.652436411531	344
4	2112	183.778141874701	345
4	2112	183.778141874701	346
4	2112	183.778141874701	347
4	2133	185.297761831808	348
4	2133	185.297761831808	349
4	2133	185.297761831808	350
4	2148	186.332816902803	351
4	2148	186.332816902803	352
4	2148	186.332816902803	353
4	2169	187.785444201702	354
4	2169	187.785444201702	355
4	2169	187.785444201702	356
4	2187	189.032933761255	357
4	2187	189.032933761255	358
4	2187	189.032933761255	359
4	2202	190.943515052956	360
4	2202	190.943515052956	361
4	2202	190.943515052956	362
4	2221	193.500455595641	363
4	2221	193.500455595641	364
4	2221	193.500455595641	365
4	2249	196.24656517919	366
4	2249	196.24656517919	367
4	2249	196.24656517919	368
4	2271	201.110454745261	369
4	2271	201.110454745261	370
4	2271	201.110454745261	371
4	2289	203.070460504122	372
4	2289	203.070460504122	373
4	2289	203.070460504122	374
4	2304	204.703792310933	375
4	2304	204.703792310933	376
4	2304	204.703792310933	377
4	2325	205.913974338093	378
4	2325	205.913974338093	379
4	2325	205.913974338093	380
4	2340	207.260083055208	381
4	2340	207.260083055208	382
4	2340	207.260083055208	383
4	2361	209.094957013654	384
4	2361	209.094957013654	385
4	2361	209.094957013654	386
4	2381	211.91029840415	387
4	2381	211.91029840415	388
4	2381	211.91029840415	389
4	2399	213.728108850923	390
4	2399	213.728108850923	391
4	2399	213.728108850923	392
4	2417	215.511793834286	393
4	2417	215.511793834286	394
4	2417	215.511793834286	395
4	2435	217.046429721908	396
4	2435	217.046429721908	397
4	2435	217.046429721908	398
4	2455	220.161686585426	399
4	2455	220.161686585426	400
4	2455	220.161686585426	401
4	2473	221.888411213822	402
4	2473	221.888411213822	403
4	2473	221.888411213822	404
4	2491	223.867365889848	405
4	2491	223.867365889848	406
4	2491	223.867365889848	407
4	2506	224.909081718094	408
4	2506	224.909081718094	409
4	2506	224.909081718094	410
4	2527	226.747925355127	411
4	2527	226.747925355127	412
4	2527	226.747925355127	413
4	2542	227.845221072919	414
4	2542	227.845221072919	415
4	2542	227.845221072919	416
4	2563	229.385282366393	417
4	2563	229.385282366393	418
4	2563	229.385282366393	419
4	2581	230.962284111683	420
4	2581	230.962284111683	421
4	2581	230.962284111683	422
4	2610	233.215039257086	423
4	2610	233.215039257086	424
4	2610	233.215039257086	425
4	2631	234.488693560388	426
4	2631	234.488693560388	427
4	2631	234.488693560388	428
4	2645	236.032704946275	429
4	2645	236.032704946275	430
4	2645	236.032704946275	431
4	2667	237.081844799255	432
4	2667	237.081844799255	433
4	2667	237.081844799255	434
4	2685	238.347906901838	435
4	2685	238.347906901838	436
4	2685	238.347906901838	437
4	2699	239.437878902569	438
4	2699	239.437878902569	439
4	2699	239.437878902569	440
5	20	1.361101004583	0
5	56	5.081309946872	1
5	74	7.057166162095	2
5	88	8.627348767826	3
5	107	9.752841789111	4
5	128	11.137906904468	5
5	142	12.846073604471	6
5	160	14.302730964739	7
5	200	17.20064080734	8
5	218	18.829488922041	9
5	236	20.407954148494	10
5	254	21.941959786449	11
5	272	23.481017370832	12
5	290	24.570126407245	13
5	326	30.380048322147	14
5	348	31.7542996663	15
5	366	33.21226548378	16
5	384	34.347494258822	17
5	402	35.486476742272	18
5	420	37.319610452569	19
5	438	39.286877333481	20
5	456	40.658729326791	21
5	471	41.69559518225	22
5	489	43.635658536984	23
5	510	44.646942005559	24
5	528	46.329260539582	25
5	543	48.020256444699	26
5	560	49.358567798286	27
5	578	51.207297011537	28
5	614	53.715880535847	29
5	632	54.864295772601	30
5	686	59.656860260742	31
5	704	60.866451765602	32
5	722	62.681628647986	33
5	740	63.796517358896	34
5	760	66.340715465506	35
5	774	68.056375084613	36
5	814	71.627197639877	37
5	832	72.65664132161	38
5	864	75.200580678753	39
5	886	76.840265514862	40
5	904	78.024278588278	41
5	919	79.129866698118	42
5	936	80.360347989874	43
5	958	81.831758084739	44
5	976	82.916273496419	45
5	991	83.925961433991	46
5	1012	85.767092217319	47
5	1026	87.577178838993	48
5	1048	88.966148453973	49
5	1068	92.278309568701	50
5	1100	94.741662826133	51
5	1115	95.874465199736	52
5	1133	97.082989442604	53
5	1154	98.52271227415	54
5	1172	99.944356990999	55
5	1190	101.087163528842	56
5	1208	102.748532090907	57
5	1226	104.710101073343	58
5	1258	107.332836945143	59
5	1280	109.24870916933	60
5	1295	110.360185329129	61
5	1316	112.310399288356	62
5	1334	113.565546465703	63
5	1352	114.560531102477	64
5	1370	116.430303334469	65
5	1388	117.500733588672	66
5	1406	119.208502364533	67
5	1426	121.997387956184	68
5	1440	123.574515419759	69
5	1462	124.749237473274	70
5	1477	125.838941175341	71
5	1495	127.288383817492	72
5	1512	129.263549087327	73
5	1534	130.482413343238	74
5	1552	131.681782555836	75
5	1570	133.238413770166	76
5	1588	135.097567931186	77
5	1608	138.524627892645	78
5	1626	139.754890865415	79
5	1640	141.439924635234	80
5	1664	144.183168827	81
5	1682	145.877626898971	82
5	1700	147.178688288413	83
5	1718	149.073877542528	84
5	1772	152.968729852126	85
5	1808	155.433018557778	86
5	1826	156.664529572198	87
5	1844	158.058041272415	88
5	1862	159.084148280641	89
5	1880	160.989856700991	90
5	1894	162.615788879718	91
5	1912	164.2597600704	92
5	1934	166.107815275153	93
5	1952	167.563882383496	94
5	1972	170.264893583156	95
5	1990	171.770169360412	96
5	2008	173.70351701017	97
5	2026	174.91866013094	98
5	2044	176.477093688254	99
5	2062	178.101716403429	100
5	2082	180.704657446143	101
5	2136	185.307761831808	102
5	2154	186.342816902803	103
5	2190	189.042933761255	104
5	2208	190.953515052956	105
5	2224	193.510455595641	106
5	2252	196.25656517919	107
5	2274	201.120454745261	108
5	2292	203.080460504122	109
5	2310	204.713792310933	110
5	2346	207.270083055208	111
5	2364	209.104957013654	112
5	2384	211.92029840415	113
5	2402	213.738108850923	114
5	2420	215.521793834286	115
5	2438	217.056429721908	116
5	2476	221.898411213822	117
5	2494	223.877365889848	118
5	2512	224.919081718094	119
5	2530	226.757925355127	120
5	2548	227.855221072919	121
5	2566	229.395282366393	122
5	2584	230.972284111683	123
5	2616	233.225039257086	124
5	2634	234.498693560388	125
5	2670	237.091844799255	126
5	2688	238.357906901838	127
5	2702	239.447878902569	128

