version 2
run General-0-20230921-21:31:29-5391
attr configname General
attr datetime 20230921-21:31:29
attr experiment General
attr inifile omnetpp.ini
attr iterationvars ""
attr iterationvarsf ""
attr measurement ""
attr network Network1
attr processid 5391
attr repetition 0
attr replication #0
attr resultdir results
attr runnumber 0
attr seedset 0
param Network1.node[*].transmissionTime "uniform(1s, 2s)"
param Network1.node[*].delayTime "uniform(0.01s, 0.2s)"
param Network1.node[*].processingTime exponential(0.01s)
param Network1.node[*].lossProbability 0.1

vector 0 Network1.node[0] txVector ETV
vector 1 Network1.node[1] txVector ETV
vector 2 Network1.node[3] txVector ETV
vector 3 Network1.node[2] txVector ETV
vector 4 Network1.node[4] txVector ETV
vector 5 Network1.node[5] rxVector ETV
0	1	0.114274565438	0
0	19	1.707119181827	1
0	33	3.184784293482	2
0	51	4.553025830844	3
0	69	6.135045622084	4
0	87	7.459186626207	5
0	105	9.428995694807	6
0	123	11.387944964068	7
0	141	13.062697286326	8
0	151	14.94089075488	9
0	169	16.38260167635	10
0	187	18.247704240335	11
0	205	20.089090362498	12
0	223	21.377566794939	13
0	241	23.356137718847	14
0	259	25.015806133002	15
0	277	26.39926835902	16
0	295	27.720265602767	17
0	313	29.072577263303	18
0	319	30.483973987708	19
0	337	32.466548944432	20
0	355	34.216548192156	21
0	373	35.824801059747	22
0	391	37.689082502229	23
0	397	39.659319187123	24
0	415	40.715737521723	25
0	433	42.392819098039	26
0	451	44.297244075295	27
0	469	45.753373847651	28
0	487	46.907068151124	29
0	505	48.081977023352	30
0	523	49.828971261	31
0	525	50.892009553574	32
0	543	52.447658790816	33
0	561	54.054134253022	34
0	579	55.898684330825	35
0	597	57.168163767159	36
0	615	58.511769266641	37
0	633	60.464639937813	38
0	651	62.216774455812	39
0	669	63.741367071709	40
0	687	65.588642388424	41
0	705	67.30382113725	42
0	723	68.860250563669	43
0	741	70.439172951114	44
0	759	72.019370058859	45
0	777	73.973091440117	46
0	795	75.60669932778	47
0	797	76.998473650618	48
0	811	78.530322832596	49
0	829	79.586288662935	50
0	847	81.166440382442	51
0	865	82.997959783376	52
0	883	84.631890735897	53
0	901	85.99505198801	54
0	919	87.116111865109	55
0	937	88.747237410471	56
0	955	90.099107974284	57
0	973	91.230960009695	58
0	991	93.191216792288	59
0	1009	94.464225695777	60
0	1027	95.79376840273	61
0	1045	97.323857334052	62
0	1063	98.958914129139	63
0	1081	100.865085969987	64
0	1099	102.092169941012	65
0	1117	103.121269949321	66
0	1135	105.008534784969	67
0	1153	106.689232021179	68
0	1171	108.269338929169	69
0	1173	110.147831559023	70
0	1175	111.581987138447	71
0	1177	113.099599240656	72
0	1195	114.574267225183	73
0	1213	116.223345559632	74
0	1231	117.856407569099	75
0	1249	119.508716523723	76
0	1267	121.072780877427	77
0	1285	122.943863447365	78
0	1303	124.835664410685	79
0	1321	126.218104509712	80
0	1339	127.318063021946	81
0	1357	128.699460173334	82
0	1375	130.532775983523	83
0	1393	131.562410795206	84
0	1395	132.917635999463	85
0	1413	134.765976151295	86
0	1415	135.910262249952	87
0	1417	137.42402198476	88
0	1435	138.64667991766	89
0	1453	139.948372385541	90
0	1471	141.14109035752	91
0	1485	142.655144831475	92
0	1503	144.264133447159	93
0	1521	145.679413391121	94
0	1539	147.323091476767	95
0	1557	149.00856885927	96
0	1575	150.544037114905	97
0	1593	151.580598103657	98
0	1611	153.51210314206	99
0	1629	155.049338793458	100
0	1647	156.130710515502	101
0	1665	157.39504327586	102
0	1675	159.24950330223	103
0	1693	160.76664057917	104
0	1711	162.341718394384	105
0	1729	164.226925670244	106
0	1747	165.703871560358	107
0	1765	167.513464940088	108
0	1783	168.8894592054	109
0	1801	170.214756011106	110
0	1819	171.91203030183	111
0	1837	173.076518711942	112
0	1855	174.650550555746	113
0	1873	176.614526275854	114
0	1891	178.546821588726	115
0	1909	180.050569402828	116
0	1927	181.491346595419	117
0	1945	183.345461478533	118
0	1963	184.789582888206	119
0	1981	185.925939890399	120
0	1999	186.9579955119	121
0	2017	188.855951448513	122
0	2035	189.980240342283	123
0	2053	191.764354691451	124
0	2071	193.640639585286	125
0	2089	194.928940139321	126
0	2103	196.195728299284	127
0	2121	198.107385055937	128
0	2139	199.336661150988	129
0	2141	200.366869356792	130
0	2159	202.276941969368	131
0	2177	203.469788068748	132
0	2195	204.721414824325	133
0	2213	206.676965373877	134
0	2215	208.646133128164	135
0	2233	210.219577067608	136
0	2235	212.197730808362	137
0	2253	213.52918272962	138
0	2271	215.35293589214	139
0	2289	216.609703706653	140
0	2307	217.791180029354	141
0	2325	219.124011011637	142
0	2331	220.719594653306	143
0	2349	221.802470822196	144
0	2367	223.506436390878	145
0	2385	225.285845123307	146
0	2403	227.088200877496	147
0	2421	228.431121671881	148
0	2427	229.462696267135	149
0	2445	230.565086215578	150
0	2463	232.088450900355	151
0	2481	233.366779707215	152
0	2499	234.829362444888	153
0	2517	235.886833074345	154
0	2535	237.152763561886	155
0	2553	238.39934061382	156
0	2571	239.553730216418	157
1	3	0.142870607559	0
1	3	0.142870607559	1
1	3	0.142870607559	2
1	21	1.73384129383	3
1	21	1.73384129383	4
1	21	1.73384129383	5
1	35	3.226285992769	6
1	35	3.226285992769	7
1	35	3.226285992769	8
1	53	4.570734177429	9
1	53	4.570734177429	10
1	53	4.570734177429	11
1	71	6.146666986978	12
1	71	6.146666986978	13
1	71	6.146666986978	14
1	89	7.479774967522	15
1	89	7.479774967522	16
1	89	7.479774967522	17
1	107	9.449573958941	18
1	107	9.449573958941	19
1	107	9.449573958941	20
1	125	11.401760522502	21
1	125	11.401760522502	22
1	125	11.401760522502	23
1	143	13.079823122259	24
1	143	13.079823122259	25
1	143	13.079823122259	26
1	153	14.989806456108	27
1	153	14.989806456108	28
1	153	14.989806456108	29
1	171	16.399714155722	30
1	171	16.399714155722	31
1	171	16.399714155722	32
1	189	18.260779417573	33
1	189	18.260779417573	34
1	189	18.260779417573	35
1	207	20.104769404033	36
1	207	20.104769404033	37
1	207	20.104769404033	38
1	225	21.388802061413	39
1	225	21.388802061413	40
1	225	21.388802061413	41
1	243	23.37375639656	42
1	243	23.37375639656	43
1	243	23.37375639656	44
1	261	25.039635925067	45
1	261	25.039635925067	46
1	261	25.039635925067	47
1	279	26.41176917397	48
1	279	26.41176917397	49
1	279	26.41176917397	50
1	297	27.736600228944	51
1	297	27.736600228944	52
1	297	27.736600228944	53
1	315	29.084085173405	54
1	315	29.084085173405	55
1	315	29.084085173405	56
1	321	30.498646713372	57
1	321	30.498646713372	58
1	321	30.498646713372	59
1	339	32.480695069859	60
1	339	32.480695069859	61
1	339	32.480695069859	62
1	357	34.235627832429	63
1	357	34.235627832429	64
1	357	34.235627832429	65
1	375	35.848697830385	66
1	375	35.848697830385	67
1	375	35.848697830385	68
1	393	37.710493881258	69
1	393	37.710493881258	70
1	393	37.710493881258	71
1	399	39.67601032436	72
1	399	39.67601032436	73
1	399	39.67601032436	74
1	417	40.735078125049	75
1	417	40.735078125049	76
1	417	40.735078125049	77
1	435	42.413197598794	78
1	435	42.413197598794	79
1	435	42.413197598794	80
1	453	44.313849106092	81
1	453	44.313849106092	82
1	453	44.313849106092	83
1	471	45.776483571333	84
1	471	45.776483571333	85
1	471	45.776483571333	86
1	489	46.929258144576	87
1	489	46.929258144576	88
1	489	46.929258144576	89
1	507	48.092948700136	90
1	507	48.092948700136	91
1	507	48.092948700136	92
1	527	50.902102383818	93
1	527	50.902102383818	94
1	527	50.902102383818	95
1	545	52.460122949038	96
1	545	52.460122949038	97
1	545	52.460122949038	98
1	563	54.066295215188	99
1	563	54.066295215188	100
1	563	54.066295215188	101
1	581	55.913969003108	102
1	581	55.913969003108	103
1	581	55.913969003108	104
1	599	57.193716710763	105
1	599	57.193716710763	106
1	599	57.193716710763	107
1	617	58.521909732553	108
1	617	58.521909732553	109
1	617	58.521909732553	110
1	635	60.492336136045	111
1	635	60.492336136045	112
1	635	60.492336136045	113
1	653	62.232608693522	114
1	653	62.232608693522	115
1	653	62.232608693522	116
1	671	63.762803977915	117
1	671	63.762803977915	118
1	671	63.762803977915	119
1	689	65.605391898161	120
1	689	65.605391898161	121
1	689	65.605391898161	122
1	707	67.315563088854	123
1	707	67.315563088854	124
1	707	67.315563088854	125
1	725	68.871218538392	126
1	725	68.871218538392	127
1	725	68.871218538392	128
1	743	70.46176936282	129
1	743	70.46176936282	130
1	743	70.46176936282	131
1	761	72.037530244499	132
1	761	72.037530244499	133
1	761	72.037530244499	134
1	779	74.01290923669	135
1	779	74.01290923669	136
1	779	74.01290923669	137
1	799	77.02714005532	138
1	799	77.02714005532	139
1	799	77.02714005532	140
1	813	78.541227907297	141
1	813	78.541227907297	142
1	813	78.541227907297	143
1	831	79.611032885183	144
1	831	79.611032885183	145
1	831	79.611032885183	146
1	849	81.192892216713	147
1	849	81.192892216713	148
1	849	81.192892216713	149
1	867	83.0341161927	150
1	867	83.0341161927	151
1	867	83.0341161927	152
1	885	84.646957968036	153
1	885	84.646957968036	154
1	885	84.646957968036	155
1	903	86.007816715175	156
1	903	86.007816715175	157
1	903	86.007816715175	158
1	921	87.127536894566	159
1	921	87.127536894566	160
1	921	87.127536894566	161
1	939	88.770646427717	162
1	939	88.770646427717	163
1	939	88.770646427717	164
1	957	90.121415162794	165
1	957	90.121415162794	166
1	957	90.121415162794	167
1	975	91.241711927787	168
1	975	91.241711927787	169
1	975	91.241711927787	170
1	993	93.236307427798	171
1	993	93.236307427798	172
1	993	93.236307427798	173
1	1011	94.508374944801	174
1	1011	94.508374944801	175
1	1011	94.508374944801	176
1	1029	95.8327195789	177
1	1029	95.8327195789	178
1	1029	95.8327195789	179
1	1047	97.337418991868	180
1	1047	97.337418991868	181
1	1047	97.337418991868	182
1	1065	98.968999609325	183
1	1065	98.968999609325	184
1	1065	98.968999609325	185
1	1083	100.881153094079	186
1	1083	100.881153094079	187
1	1083	100.881153094079	188
1	1101	102.12736882795	189
1	1101	102.12736882795	190
1	1101	102.12736882795	191
1	1119	103.152481493889	192
1	1119	103.152481493889	193
1	1119	103.152481493889	194
1	1137	105.021919196297	195
1	1137	105.021919196297	196
1	1137	105.021919196297	197
1	1155	106.70834347926	198
1	1155	106.70834347926	199
1	1155	106.70834347926	200
1	1179	113.111637094478	201
1	1179	113.111637094478	202
1	1179	113.111637094478	203
1	1197	114.584319256511	204
1	1197	114.584319256511	205
1	1197	114.584319256511	206
1	1215	116.255477831947	207
1	1215	116.255477831947	208
1	1215	116.255477831947	209
1	1233	117.883651487954	210
1	1233	117.883651487954	211
1	1233	117.883651487954	212
1	1251	119.55016649925	213
1	1251	119.55016649925	214
1	1251	119.55016649925	215
1	1269	121.084758195106	216
1	1269	121.084758195106	217
1	1269	121.084758195106	218
1	1287	122.969047138849	219
1	1287	122.969047138849	220
1	1287	122.969047138849	221
1	1305	124.846679898391	222
1	1305	124.846679898391	223
1	1305	124.846679898391	224
1	1323	126.228509089269	225
1	1323	126.228509089269	226
1	1323	126.228509089269	227
1	1341	127.328285208466	228
1	1341	127.328285208466	229
1	1341	127.328285208466	230
1	1359	128.724412484515	231
1	1359	128.724412484515	232
1	1359	128.724412484515	233
1	1377	130.564784152267	234
1	1377	130.564784152267	235
1	1377	130.564784152267	236
1	1397	132.942362128088	237
1	1397	132.942362128088	238
1	1397	132.942362128088	239
1	1419	137.438634242536	240
1	1419	137.438634242536	241
1	1419	137.438634242536	242
1	1437	138.657410043098	243
1	1437	138.657410043098	244
1	1437	138.657410043098	245
1	1455	139.983393965366	246
1	1455	139.983393965366	247
1	1455	139.983393965366	248
1	1473	141.152116150119	249
1	1473	141.152116150119	250
1	1473	141.152116150119	251
1	1487	142.673796322064	252
1	1487	142.673796322064	253
1	1487	142.673796322064	254
1	1505	144.27950528453	255
1	1505	144.27950528453	256
1	1505	144.27950528453	257
1	1523	145.693946235829	258
1	1523	145.693946235829	259
1	1523	145.693946235829	260
1	1541	147.335719030866	261
1	1541	147.335719030866	262
1	1541	147.335719030866	263
1	1559	149.024328088999	264
1	1559	149.024328088999	265
1	1559	149.024328088999	266
1	1577	150.559261407338	267
1	1577	150.559261407338	268
1	1577	150.559261407338	269
1	1595	151.601801694485	270
1	1595	151.601801694485	271
1	1595	151.601801694485	272
1	1613	153.528183458318	273
1	1613	153.528183458318	274
1	1613	153.528183458318	275
1	1631	155.06322512912	276
1	1631	155.06322512912	277
1	1631	155.06322512912	278
1	1649	156.14499309579	279
1	1649	156.14499309579	280
1	1649	156.14499309579	281
1	1667	157.413131177123	282
1	1667	157.413131177123	283
1	1667	157.413131177123	284
1	1677	159.273572607683	285
1	1677	159.273572607683	286
1	1677	159.273572607683	287
1	1695	160.78211926611	288
1	1695	160.78211926611	289
1	1695	160.78211926611	290
1	1713	162.370352254222	291
1	1713	162.370352254222	292
1	1713	162.370352254222	293
1	1731	164.245734746417	294
1	1731	164.245734746417	295
1	1731	164.245734746417	296
1	1749	165.71615402659	297
1	1749	165.71615402659	298
1	1749	165.71615402659	299
1	1767	167.526236974473	300
1	1767	167.526236974473	301
1	1767	167.526236974473	302
1	1785	168.906329161759	303
1	1785	168.906329161759	304
1	1785	168.906329161759	305
1	1803	170.230979991349	306
1	1803	170.230979991349	307
1	1803	170.230979991349	308
1	1821	171.935822455337	309
1	1821	171.935822455337	310
1	1821	171.935822455337	311
1	1839	173.115513698479	312
1	1839	173.115513698479	313
1	1839	173.115513698479	314
1	1857	174.674069024315	315
1	1857	174.674069024315	316
1	1857	174.674069024315	317
1	1875	176.674146603303	318
1	1875	176.674146603303	319
1	1875	176.674146603303	320
1	1893	178.561804476898	321
1	1893	178.561804476898	322
1	1893	178.561804476898	323
1	1911	180.062892456469	324
1	1911	180.062892456469	325
1	1911	180.062892456469	326
1	1929	181.502794756764	327
1	1929	181.502794756764	328
1	1929	181.502794756764	329
1	1947	183.360035057648	330
1	1947	183.360035057648	331
1	1947	183.360035057648	332
1	1965	184.812030508994	333
1	1965	184.812030508994	334
1	1965	184.812030508994	335
1	1983	185.936569235218	336
1	1983	185.936569235218	337
1	1983	185.936569235218	338
1	2001	186.9932868263	339
1	2001	186.9932868263	340
1	2001	186.9932868263	341
1	2019	188.868478352282	342
1	2019	188.868478352282	343
1	2019	188.868478352282	344
1	2037	189.992871951249	345
1	2037	189.992871951249	346
1	2037	189.992871951249	347
1	2055	191.77699933707	348
1	2055	191.77699933707	349
1	2055	191.77699933707	350
1	2073	193.676047019658	351
1	2073	193.676047019658	352
1	2073	193.676047019658	353
1	2091	194.941165695691	354
1	2091	194.941165695691	355
1	2091	194.941165695691	356
1	2105	196.211068532691	357
1	2105	196.211068532691	358
1	2105	196.211068532691	359
1	2123	198.128950063599	360
1	2123	198.128950063599	361
1	2123	198.128950063599	362
1	2143	200.37715316628	363
1	2143	200.37715316628	364
1	2143	200.37715316628	365
1	2161	202.292253144559	366
1	2161	202.292253144559	367
1	2161	202.292253144559	368
1	2179	203.481506442296	369
1	2179	203.481506442296	370
1	2179	203.481506442296	371
1	2197	204.732668412952	372
1	2197	204.732668412952	373
1	2197	204.732668412952	374
1	2217	208.662265633379	375
1	2217	208.662265633379	376
1	2217	208.662265633379	377
1	2237	212.210038326732	378
1	2237	212.210038326732	379
1	2237	212.210038326732	380
1	2255	213.542404433288	381
1	2255	213.542404433288	382
1	2255	213.542404433288	383
1	2273	215.365638113135	384
1	2273	215.365638113135	385
1	2273	215.365638113135	386
1	2291	216.621522398074	387
1	2291	216.621522398074	388
1	2291	216.621522398074	389
1	2309	217.828099219097	390
1	2309	217.828099219097	391
1	2309	217.828099219097	392
1	2327	219.13839328854	393
1	2327	219.13839328854	394
1	2327	219.13839328854	395
1	2333	220.744111838541	396
1	2333	220.744111838541	397
1	2333	220.744111838541	398
1	2351	221.83936501608	399
1	2351	221.83936501608	400
1	2351	221.83936501608	401
1	2369	223.535366539213	402
1	2369	223.535366539213	403
1	2369	223.535366539213	404
1	2387	225.295845729025	405
1	2387	225.295845729025	406
1	2387	225.295845729025	407
1	2405	227.107455439059	408
1	2405	227.107455439059	409
1	2405	227.107455439059	410
1	2423	228.464248825335	411
1	2423	228.464248825335	412
1	2423	228.464248825335	413
1	2429	229.487987489478	414
1	2429	229.487987489478	415
1	2429	229.487987489478	416
1	2447	230.579876180999	417
1	2447	230.579876180999	418
1	2447	230.579876180999	419
1	2465	232.099949056295	420
1	2465	232.099949056295	421
1	2465	232.099949056295	422
1	2483	233.387173594106	423
1	2483	233.387173594106	424
1	2483	233.387173594106	425
1	2501	234.869013138529	426
1	2501	234.869013138529	427
1	2501	234.869013138529	428
1	2519	235.898404708569	429
1	2519	235.898404708569	430
1	2519	235.898404708569	431
1	2537	237.166547248957	432
1	2537	237.166547248957	433
1	2537	237.166547248957	434
1	2555	238.415153944114	435
1	2555	238.415153944114	436
1	2555	238.415153944114	437
1	2573	239.591351799569	438
1	2573	239.591351799569	439
1	2573	239.591351799569	440
2	7	0.158381092426	0
2	7	0.158381092426	1
2	7	0.158381092426	2
2	29	1.769823834688	3
2	29	1.769823834688	4
2	29	1.769823834688	5
2	43	3.27473821146	6
2	43	3.27473821146	7
2	43	3.27473821146	8
2	57	4.586089834631	9
2	57	4.586089834631	10
2	57	4.586089834631	11
2	80	6.185446137191	12
2	80	6.185446137191	13
2	80	6.185446137191	14
2	93	7.491155254406	15
2	93	7.491155254406	16
2	93	7.491155254406	17
2	112	9.470161386092	18
2	112	9.470161386092	19
2	112	9.470161386092	20
2	130	11.416360662079	21
2	130	11.416360662079	22
2	130	11.416360662079	23
2	147	13.095822591125	24
2	147	13.095822591125	25
2	147	13.095822591125	26
2	157	15.001070342472	27
2	157	15.001070342472	28
2	157	15.001070342472	29
2	176	16.418293112133	30
2	176	16.418293112133	31
2	176	16.418293112133	32
2	193	18.270982542161	33
2	193	18.270982542161	34
2	193	18.270982542161	35
2	212	20.123735312741	36
2	212	20.123735312741	37
2	212	20.123735312741	38
2	229	21.403852248891	39
2	229	21.403852248891	40
2	229	21.403852248891	41
2	247	23.389270356461	42
2	247	23.389270356461	43
2	247	23.389270356461	44
2	266	25.053178166389	45
2	266	25.053178166389	46
2	266	25.053178166389	47
2	287	26.452759878589	48
2	287	26.452759878589	49
2	287	26.452759878589	50
2	306	27.766859317115	51
2	306	27.766859317115	52
2	306	27.766859317115	53
2	333	30.578667493648	54
2	333	30.578667493648	55
2	333	30.578667493648	56
2	344	32.49292646194	57
2	344	32.49292646194	58
2	344	32.49292646194	59
2	362	34.25534265401	60
2	362	34.25534265401	61
2	362	34.25534265401	62
2	380	35.863776481612	63
2	380	35.863776481612	64
2	380	35.863776481612	65
2	403	39.690754487263	66
2	403	39.690754487263	67
2	403	39.690754487263	68
2	421	40.747523035269	69
2	421	40.747523035269	70
2	421	40.747523035269	71
2	439	42.433112641723	72
2	439	42.433112641723	73
2	439	42.433112641723	74
2	457	44.336974186022	75
2	457	44.336974186022	76
2	457	44.336974186022	77
2	475	45.789735731513	78
2	475	45.789735731513	79
2	475	45.789735731513	80
2	493	46.941282732213	81
2	493	46.941282732213	82
2	493	46.941282732213	83
2	512	48.110982617763	84
2	512	48.110982617763	85
2	512	48.110982617763	86
2	531	50.91541148263	87
2	531	50.91541148263	88
2	531	50.91541148263	89
2	554	52.499944955793	90
2	554	52.499944955793	91
2	554	52.499944955793	92
2	568	54.080560573308	93
2	568	54.080560573308	94
2	568	54.080560573308	95
2	585	55.92607433599	96
2	585	55.92607433599	97
2	585	55.92607433599	98
2	603	57.207768539586	99
2	603	57.207768539586	100
2	603	57.207768539586	101
2	621	58.53349906435	102
2	621	58.53349906435	103
2	621	58.53349906435	104
2	643	60.525890257726	105
2	643	60.525890257726	106
2	643	60.525890257726	107
2	658	62.247387873397	108
2	658	62.247387873397	109
2	658	62.247387873397	110
2	679	63.809745882341	111
2	679	63.809745882341	112
2	679	63.809745882341	113
2	693	65.619056411079	114
2	693	65.619056411079	115
2	693	65.619056411079	116
2	711	67.328814797559	117
2	711	67.328814797559	118
2	711	67.328814797559	119
2	733	68.917684780165	120
2	733	68.917684780165	121
2	733	68.917684780165	122
2	747	70.484914583801	123
2	747	70.484914583801	124
2	747	70.484914583801	125
2	765	72.05725035341	126
2	765	72.05725035341	127
2	765	72.05725035341	128
2	783	74.025902520514	129
2	783	74.025902520514	130
2	783	74.025902520514	131
2	803	77.038189382793	132
2	803	77.038189382793	133
2	803	77.038189382793	134
2	817	78.551564246506	135
2	817	78.551564246506	136
2	817	78.551564246506	137
2	836	79.622260035256	138
2	836	79.622260035256	139
2	836	79.622260035256	140
2	853	81.203567558282	141
2	853	81.203567558282	142
2	853	81.203567558282	143
2	872	83.052205989651	144
2	872	83.052205989651	145
2	872	83.052205989651	146
2	890	84.661243044078	147
2	890	84.661243044078	148
2	890	84.661243044078	149
2	915	86.047966397897	150
2	915	86.047966397897	151
2	915	86.047966397897	152
2	926	87.151351485364	153
2	926	87.151351485364	154
2	926	87.151351485364	155
2	943	88.790697584203	156
2	943	88.790697584203	157
2	943	88.790697584203	158
2	962	90.134879496069	159
2	962	90.134879496069	160
2	962	90.134879496069	161
2	979	91.290621028691	162
2	979	91.290621028691	163
2	979	91.290621028691	164
2	997	93.268203894944	165
2	997	93.268203894944	166
2	997	93.268203894944	167
2	1016	94.521300450813	168
2	1016	94.521300450813	169
2	1016	94.521300450813	170
2	1034	95.846900495489	171
2	1034	95.846900495489	172
2	1034	95.846900495489	173
2	1055	97.363019516008	174
2	1055	97.363019516008	175
2	1055	97.363019516008	176
2	1069	98.980229234994	177
2	1069	98.980229234994	178
2	1069	98.980229234994	179
2	1091	100.924059582382	180
2	1091	100.924059582382	181
2	1091	100.924059582382	182
2	1106	102.14470752762	183
2	1106	102.14470752762	184
2	1106	102.14470752762	185
2	1131	103.201896080735	186
2	1131	103.201896080735	187
2	1131	103.201896080735	188
2	1141	105.033153291012	189
2	1141	105.033153291012	190
2	1141	105.033153291012	191
2	1159	106.720089757225	192
2	1159	106.720089757225	193
2	1159	106.720089757225	194
2	1183	113.132802280214	195
2	1183	113.132802280214	196
2	1183	113.132802280214	197
2	1202	114.59829404731	198
2	1202	114.59829404731	199
2	1202	114.59829404731	200
2	1220	116.271575453676	201
2	1220	116.271575453676	202
2	1220	116.271575453676	203
2	1242	117.921494148917	204
2	1242	117.921494148917	205
2	1242	117.921494148917	206
2	1255	119.564253675792	207
2	1255	119.564253675792	208
2	1255	119.564253675792	209
2	1273	121.09588992843	210
2	1273	121.09588992843	211
2	1273	121.09588992843	212
2	1292	122.990596884185	213
2	1292	122.990596884185	214
2	1292	122.990596884185	215
2	1309	124.857283078629	216
2	1309	124.857283078629	217
2	1309	124.857283078629	218
2	1328	126.24368075854	219
2	1328	126.24368075854	220
2	1328	126.24368075854	221
2	1345	127.339011369047	222
2	1345	127.339011369047	223
2	1345	127.339011369047	224
2	1363	128.734716564453	225
2	1363	128.734716564453	226
2	1363	128.734716564453	227
2	1381	130.57508039979	228
2	1381	130.57508039979	229
2	1381	130.57508039979	230
2	1401	132.954883524852	231
2	1401	132.954883524852	232
2	1401	132.954883524852	233
2	1423	137.472847609	234
2	1423	137.472847609	235
2	1423	137.472847609	236
2	1445	138.693612058867	237
2	1445	138.693612058867	238
2	1445	138.693612058867	239
2	1460	140.000346723176	240
2	1460	140.000346723176	241
2	1460	140.000346723176	242
2	1478	141.16385784233	243
2	1478	141.16385784233	244
2	1478	141.16385784233	245
2	1496	142.705158261327	246
2	1496	142.705158261327	247
2	1496	142.705158261327	248
2	1514	144.310493468816	249
2	1514	144.310493468816	250
2	1514	144.310493468816	251
2	1531	145.725205541528	252
2	1531	145.725205541528	253
2	1531	145.725205541528	254
2	1545	147.347534823043	255
2	1545	147.347534823043	256
2	1545	147.347534823043	257
2	1567	149.052833945465	258
2	1567	149.052833945465	259
2	1567	149.052833945465	260
2	1581	150.572092425628	261
2	1581	150.572092425628	262
2	1581	150.572092425628	263
2	1603	151.654634688647	264
2	1603	151.654634688647	265
2	1603	151.654634688647	266
2	1617	153.552878791477	267
2	1617	153.552878791477	268
2	1617	153.552878791477	269
2	1636	155.08689918631	270
2	1636	155.08689918631	271
2	1636	155.08689918631	272
2	1653	156.164211888373	273
2	1653	156.164211888373	274
2	1653	156.164211888373	275
2	1671	157.423721467652	276
2	1671	157.423721467652	277
2	1671	157.423721467652	278
2	1681	159.289673315596	279
2	1681	159.289673315596	280
2	1681	159.289673315596	281
2	1703	160.814106919007	282
2	1703	160.814106919007	283
2	1703	160.814106919007	284
2	1718	162.384799438772	285
2	1718	162.384799438772	286
2	1718	162.384799438772	287
2	1739	164.276414369569	288
2	1739	164.276414369569	289
2	1739	164.276414369569	290
2	1753	165.730575528309	291
2	1753	165.730575528309	292
2	1753	165.730575528309	293
2	1775	167.55097175224	294
2	1775	167.55097175224	295
2	1775	167.55097175224	296
2	1793	168.945917305769	297
2	1793	168.945917305769	298
2	1793	168.945917305769	299
2	1811	170.26185689398	300
2	1811	170.26185689398	301
2	1811	170.26185689398	302
2	1829	172.00354729231	303
2	1829	172.00354729231	304
2	1829	172.00354729231	305
2	1843	173.132148915328	306
2	1843	173.132148915328	307
2	1843	173.132148915328	308
2	1861	174.684507751095	309
2	1861	174.684507751095	310
2	1861	174.684507751095	311
2	1879	176.685659297753	312
2	1879	176.685659297753	313
2	1879	176.685659297753	314
2	1898	178.588689255178	315
2	1898	178.588689255178	316
2	1898	178.588689255178	317
2	1919	180.092106995829	318
2	1919	180.092106995829	319
2	1919	180.092106995829	320
2	1934	181.525881708361	321
2	1934	181.525881708361	322
2	1934	181.525881708361	323
2	1952	183.377690262386	324
2	1952	183.377690262386	325
2	1952	183.377690262386	326
2	1969	184.828810364211	327
2	1969	184.828810364211	328
2	1969	184.828810364211	329
2	1988	185.959919666061	330
2	1988	185.959919666061	331
2	1988	185.959919666061	332
2	2006	187.015623259076	333
2	2006	187.015623259076	334
2	2006	187.015623259076	335
2	2024	188.881868730559	336
2	2024	188.881868730559	337
2	2024	188.881868730559	338
2	2042	190.012560955278	339
2	2042	190.012560955278	340
2	2042	190.012560955278	341
2	2060	191.793375654263	342
2	2060	191.793375654263	343
2	2060	191.793375654263	344
2	2078	193.693508469628	345
2	2078	193.693508469628	346
2	2078	193.693508469628	347
2	2095	194.957615454068	348
2	2095	194.957615454068	349
2	2095	194.957615454068	350
2	2109	196.223718254048	351
2	2109	196.223718254048	352
2	2109	196.223718254048	353
2	2128	198.146108528072	354
2	2128	198.146108528072	355
2	2128	198.146108528072	356
2	2148	200.398913763552	357
2	2148	200.398913763552	358
2	2148	200.398913763552	359
2	2173	202.336468512021	360
2	2173	202.336468512021	361
2	2173	202.336468512021	362
2	2188	203.505567377467	363
2	2188	203.505567377467	364
2	2188	203.505567377467	365
2	2209	204.769160332191	366
2	2209	204.769160332191	367
2	2209	204.769160332191	368
2	2222	208.677774953125	369
2	2222	208.677774953125	370
2	2222	208.677774953125	371
2	2245	212.239130831631	372
2	2245	212.239130831631	373
2	2245	212.239130831631	374
2	2259	213.552425100946	375
2	2259	213.552425100946	376
2	2259	213.552425100946	377
2	2281	215.391328821608	378
2	2281	215.391328821608	379
2	2281	215.391328821608	380
2	2295	216.635828653135	381
2	2295	216.635828653135	382
2	2295	216.635828653135	383
2	2318	217.855632606138	384
2	2318	217.855632606138	385
2	2318	217.855632606138	386
2	2338	220.779810674101	387
2	2338	220.779810674101	388
2	2338	220.779810674101	389
2	2360	221.878301415796	390
2	2360	221.878301415796	391
2	2360	221.878301415796	392
2	2373	223.555851461388	393
2	2373	223.555851461388	394
2	2373	223.555851461388	395
2	2392	225.316878507406	396
2	2392	225.316878507406	397
2	2392	225.316878507406	398
2	2409	227.121675792931	399
2	2409	227.121675792931	400
2	2409	227.121675792931	401
2	2433	229.519685208888	402
2	2433	229.519685208888	403
2	2433	229.519685208888	404
2	2452	230.596004990755	405
2	2452	230.596004990755	406
2	2452	230.596004990755	407
2	2470	232.115480368506	408
2	2470	232.115480368506	409
2	2470	232.115480368506	410
2	2492	233.413544894371	411
2	2492	233.413544894371	412
2	2492	233.413544894371	413
2	2513	234.910128146606	414
2	2513	234.910128146606	415
2	2513	234.910128146606	416
2	2523	235.914564259187	417
2	2523	235.914564259187	418
2	2523	235.914564259187	419
2	2541	237.176911219856	420
2	2541	237.176911219856	421
2	2541	237.176911219856	422
2	2559	238.431565683073	423
2	2559	238.431565683073	424
2	2559	238.431565683073	425
2	2578	239.605375531682	426
2	2578	239.605375531682	427
2	2578	239.605375531682	428
3	8	0.160742618959	0
3	8	0.160742618959	1
3	8	0.160742618959	2
3	25	1.752235622359	3
3	25	1.752235622359	4
3	25	1.752235622359	5
3	39	3.256689135348	6
3	39	3.256689135348	7
3	39	3.256689135348	8
3	58	4.588112450347	9
3	58	4.588112450347	10
3	58	4.588112450347	11
3	75	6.166262466752	12
3	75	6.166262466752	13
3	75	6.166262466752	14
3	94	7.492137034583	15
3	94	7.492137034583	16
3	94	7.492137034583	17
3	111	9.461333094395	18
3	111	9.461333094395	19
3	111	9.461333094395	20
3	129	11.413949328467	21
3	129	11.413949328467	22
3	129	11.413949328467	23
3	158	15.003318217002	24
3	158	15.003318217002	25
3	158	15.003318217002	26
3	175	16.410700658806	27
3	175	16.410700658806	28
3	175	16.410700658806	29
3	194	18.279610707993	30
3	194	18.279610707993	31
3	194	18.279610707993	32
3	211	20.123353333711	33
3	211	20.123353333711	34
3	211	20.123353333711	35
3	233	21.415611283458	36
3	233	21.415611283458	37
3	233	21.415611283458	38
3	248	23.394084366666	39
3	248	23.394084366666	40
3	248	23.394084366666	41
3	265	25.051091664851	42
3	265	25.051091664851	43
3	265	25.051091664851	44
3	283	26.42635090281	45
3	283	26.42635090281	46
3	283	26.42635090281	47
3	301	27.748218929811	48
3	301	27.748218929811	49
3	301	27.748218929811	50
3	325	30.52145005541	51
3	325	30.52145005541	52
3	325	30.52145005541	53
3	343	32.491253770388	54
3	343	32.491253770388	55
3	343	32.491253770388	56
3	361	34.247427405845	57
3	361	34.247427405845	58
3	361	34.247427405845	59
3	379	35.862436695344	60
3	379	35.862436695344	61
3	379	35.862436695344	62
3	404	39.697928905397	63
3	404	39.697928905397	64
3	404	39.697928905397	65
3	429	40.791474650313	66
3	429	40.791474650313	67
3	429	40.791474650313	68
3	440	42.440979032162	69
3	440	42.440979032162	70
3	440	42.440979032162	71
3	462	44.353293908866	72
3	462	44.353293908866	73
3	462	44.353293908866	74
3	476	45.792711864431	75
3	476	45.792711864431	76
3	476	45.792711864431	77
3	494	46.947591926982	78
3	494	46.947591926982	79
3	494	46.947591926982	80
3	511	48.103819785969	81
3	511	48.103819785969	82
3	511	48.103819785969	83
3	536	50.927480670963	84
3	536	50.927480670963	85
3	536	50.927480670963	86
3	549	52.472758720166	87
3	549	52.472758720166	88
3	549	52.472758720166	89
3	567	54.076428467636	90
3	567	54.076428467636	91
3	567	54.076428467636	92
3	590	55.941235336905	93
3	590	55.941235336905	94
3	590	55.941235336905	95
3	607	57.218591008306	96
3	607	57.218591008306	97
3	607	57.218591008306	98
3	626	58.546631774133	99
3	626	58.546631774133	100
3	626	58.546631774133	101
3	639	60.515320592401	102
3	639	60.515320592401	103
3	639	60.515320592401	104
3	657	62.245942726906	105
3	657	62.245942726906	106
3	657	62.245942726906	107
3	675	63.777485042447	108
3	675	63.777485042447	109
3	675	63.777485042447	110
3	694	65.622707351552	111
3	694	65.622707351552	112
3	694	65.622707351552	113
3	712	67.337001042645	114
3	712	67.337001042645	115
3	712	67.337001042645	116
3	729	68.902592755296	117
3	729	68.902592755296	118
3	729	68.902592755296	119
3	751	70.496664534283	120
3	751	70.496664534283	121
3	751	70.496664534283	122
3	769	72.084441046528	123
3	769	72.084441046528	124
3	769	72.084441046528	125
3	784	74.028426272816	126
3	784	74.028426272816	127
3	784	74.028426272816	128
3	807	77.063631937942	129
3	807	77.063631937942	130
3	807	77.063631937942	131
3	818	78.56075913268	132
3	818	78.56075913268	133
3	818	78.56075913268	134
3	835	79.621153977634	135
3	835	79.621153977634	136
3	835	79.621153977634	137
3	861	81.248370455232	138
3	861	81.248370455232	139
3	861	81.248370455232	140
3	871	83.049634213916	141
3	871	83.049634213916	142
3	871	83.049634213916	143
3	889	84.659605790769	144
3	889	84.659605790769	145
3	889	84.659605790769	146
3	907	86.018936160586	147
3	907	86.018936160586	148
3	907	86.018936160586	149
3	925	87.142225676122	150
3	925	87.142225676122	151
3	925	87.142225676122	152
3	947	88.809220681195	153
3	947	88.809220681195	154
3	947	88.809220681195	155
3	961	90.132150226568	156
3	961	90.132150226568	157
3	961	90.132150226568	158
3	983	91.309591558832	159
3	983	91.309591558832	160
3	983	91.309591558832	161
3	1001	93.281920052492	162
3	1001	93.281920052492	163
3	1001	93.281920052492	164
3	1015	94.518874100825	165
3	1015	94.518874100825	166
3	1015	94.518874100825	167
3	1033	95.845012750616	168
3	1033	95.845012750616	169
3	1033	95.845012750616	170
3	1051	97.352081962132	171
3	1051	97.352081962132	172
3	1051	97.352081962132	173
3	1070	98.98135366799	174
3	1070	98.98135366799	175
3	1070	98.98135366799	176
3	1087	100.900038381202	177
3	1087	100.900038381202	178
3	1087	100.900038381202	179
3	1105	102.143203429673	180
3	1105	102.143203429673	181
3	1105	102.143203429673	182
3	1123	103.163913980927	183
3	1123	103.163913980927	184
3	1123	103.163913980927	185
3	1145	105.045074246773	186
3	1145	105.045074246773	187
3	1145	105.045074246773	188
3	1164	106.742189632692	189
3	1164	106.742189632692	190
3	1164	106.742189632692	191
3	1187	113.144471034822	192
3	1187	113.144471034822	193
3	1187	113.144471034822	194
3	1201	114.596238835531	195
3	1201	114.596238835531	196
3	1201	114.596238835531	197
3	1219	116.270065344973	198
3	1219	116.270065344973	199
3	1219	116.270065344973	200
3	1237	117.898714127625	201
3	1237	117.898714127625	202
3	1237	117.898714127625	203
3	1256	119.572148013128	204
3	1256	119.572148013128	205
3	1256	119.572148013128	206
3	1274	121.096006126029	207
3	1274	121.096006126029	208
3	1274	121.096006126029	209
3	1291	122.980646580983	210
3	1291	122.980646580983	211
3	1291	122.980646580983	212
3	1314	124.876311131287	213
3	1314	124.876311131287	214
3	1314	124.876311131287	215
3	1327	126.241673363181	216
3	1327	126.241673363181	217
3	1327	126.241673363181	218
3	1346	127.347818067778	219
3	1346	127.347818067778	220
3	1346	127.347818067778	221
3	1364	128.738284459187	222
3	1364	128.738284459187	223
3	1364	128.738284459187	224
3	1386	130.594970789866	225
3	1386	130.594970789866	226
3	1386	130.594970789866	227
3	1402	132.957033660353	228
3	1402	132.957033660353	229
3	1402	132.957033660353	230
3	1428	137.488943200808	231
3	1428	137.488943200808	232
3	1428	137.488943200808	233
3	1441	138.68131393637	234
3	1441	138.68131393637	235
3	1441	138.68131393637	236
3	1459	139.997928099549	237
3	1459	139.997928099549	238
3	1459	139.997928099549	239
3	1477	141.163364758697	240
3	1477	141.163364758697	241
3	1477	141.163364758697	242
3	1491	142.684645036174	243
3	1491	142.684645036174	244
3	1491	142.684645036174	245
3	1509	144.292614205161	246
3	1509	144.292614205161	247
3	1509	144.292614205161	248
3	1527	145.70804250743	249
3	1527	145.70804250743	250
3	1527	145.70804250743	251
3	1546	147.348158327565	252
3	1546	147.348158327565	253
3	1546	147.348158327565	254
3	1563	149.03989511564	255
3	1563	149.03989511564	256
3	1563	149.03989511564	257
3	1582	150.577659742352	258
3	1582	150.577659742352	259
3	1582	150.577659742352	260
3	1599	151.618406433428	261
3	1599	151.618406433428	262
3	1599	151.618406433428	263
3	1618	153.560966555746	264
3	1618	153.560966555746	265
3	1618	153.560966555746	266
3	1635	155.078383946345	267
3	1635	155.078383946345	268
3	1635	155.078383946345	269
3	1661	156.190451992811	270
3	1661	156.190451992811	271
3	1661	156.190451992811	272
3	1685	159.300807362818	273
3	1685	159.300807362818	274
3	1685	159.300807362818	275
3	1699	160.799368500473	276
3	1699	160.799368500473	277
3	1699	160.799368500473	278
3	1717	162.381864158486	279
3	1717	162.381864158486	280
3	1717	162.381864158486	281
3	1735	164.258704217005	282
3	1735	164.258704217005	283
3	1735	164.258704217005	284
3	1754	165.731829352428	285
3	1754	165.731829352428	286
3	1754	165.731829352428	287
3	1771	167.540461008967	288
3	1771	167.540461008967	289
3	1771	167.540461008967	290
3	1789	168.926035819237	291
3	1789	168.926035819237	292
3	1789	168.926035819237	293
3	1807	170.24159218567	294
3	1807	170.24159218567	295
3	1807	170.24159218567	296
3	1825	171.985188516635	297
3	1825	171.985188516635	298
3	1825	171.985188516635	299
3	1844	173.132797838233	300
3	1844	173.132797838233	301
3	1844	173.132797838233	302
3	1869	174.707414906536	303
3	1869	174.707414906536	304
3	1869	174.707414906536	305
3	1884	176.700960247255	306
3	1884	176.700960247255	307
3	1884	176.700960247255	308
3	1897	178.584815603277	309
3	1897	178.584815603277	310
3	1897	178.584815603277	311
3	1915	180.080277581839	312
3	1915	180.080277581839	313
3	1915	180.080277581839	314
3	1933	181.519383842232	315
3	1933	181.519383842232	316
3	1933	181.519383842232	317
3	1951	183.372232295103	318
3	1951	183.372232295103	319
3	1951	183.372232295103	320
3	1973	184.847579316891	321
3	1973	184.847579316891	322
3	1973	184.847579316891	323
3	1987	185.953638916859	324
3	1987	185.953638916859	325
3	1987	185.953638916859	326
3	2005	187.009746145836	327
3	2005	187.009746145836	328
3	2005	187.009746145836	329
3	2023	188.879615332566	330
3	2023	188.879615332566	331
3	2023	188.879615332566	332
3	2041	190.005561656532	333
3	2041	190.005561656532	334
3	2041	190.005561656532	335
3	2059	191.788384555491	336
3	2059	191.788384555491	337
3	2059	191.788384555491	338
3	2077	193.687408585392	339
3	2077	193.687408585392	340
3	2077	193.687408585392	341
3	2099	194.970355669938	342
3	2099	194.970355669938	343
3	2099	194.970355669938	344
3	2113	196.238425217186	345
3	2113	196.238425217186	346
3	2113	196.238425217186	347
3	2127	198.139064264464	348
3	2127	198.139064264464	349
3	2127	198.139064264464	350
3	2147	200.38920985748	351
3	2147	200.38920985748	352
3	2147	200.38920985748	353
3	2165	202.303772513145	354
3	2165	202.303772513145	355
3	2165	202.303772513145	356
3	2183	203.492787928155	357
3	2183	203.492787928155	358
3	2183	203.492787928155	359
3	2201	204.746177469669	360
3	2201	204.746177469669	361
3	2201	204.746177469669	362
3	2221	208.674532080563	363
3	2221	208.674532080563	364
3	2221	208.674532080563	365
3	2241	212.22808093171	366
3	2241	212.22808093171	367
3	2241	212.22808093171	368
3	2260	213.561155749144	369
3	2260	213.561155749144	370
3	2260	213.561155749144	371
3	2277	215.379637683539	372
3	2277	215.379637683539	373
3	2277	215.379637683539	374
3	2296	216.638581539812	375
3	2296	216.638581539812	376
3	2296	216.638581539812	377
3	2313	217.841905239877	378
3	2313	217.841905239877	379
3	2313	217.841905239877	380
3	2337	220.770140893916	381
3	2337	220.770140893916	382
3	2337	220.770140893916	383
3	2355	221.852427111753	384
3	2355	221.852427111753	385
3	2355	221.852427111753	386
3	2374	223.557637991789	387
3	2374	223.557637991789	388
3	2374	223.557637991789	389
3	2391	225.314065780432	390
3	2391	225.314065780432	391
3	2391	225.314065780432	392
3	2410	227.128039737143	393
3	2410	227.128039737143	394
3	2410	227.128039737143	395
3	2437	229.544524683558	396
3	2437	229.544524683558	397
3	2437	229.544524683558	398
3	2451	230.592680857374	399
3	2451	230.592680857374	400
3	2451	230.592680857374	401
3	2469	232.109995713306	402
3	2469	232.109995713306	403
3	2469	232.109995713306	404
3	2487	233.398813267157	405
3	2487	233.398813267157	406
3	2487	233.398813267157	407
3	2505	234.884048886024	408
3	2505	234.884048886024	409
3	2505	234.884048886024	410
3	2524	235.922600891911	411
3	2524	235.922600891911	412
3	2524	235.922600891911	413
3	2542	237.182168381576	414
3	2542	237.182168381576	415
3	2542	237.182168381576	416
3	2560	238.433113416804	417
3	2560	238.433113416804	418
3	2560	238.433113416804	419
3	2577	239.601875823557	420
3	2577	239.601875823557	421
3	2577	239.601875823557	422
4	15	0.174136284395	0
4	15	0.174136284395	1
4	15	0.174136284395	2
4	44	3.282829156097	3
4	44	3.282829156097	4
4	44	3.282829156097	5
4	65	4.610972382889	6
4	65	4.610972382889	7
4	65	4.610972382889	8
4	79	6.18223992752	9
4	79	6.18223992752	10
4	79	6.18223992752	11
4	101	7.505676275008	12
4	101	7.505676275008	13
4	101	7.505676275008	14
4	116	9.476683741166	15
4	116	9.476683741166	16
4	116	9.476683741166	17
4	134	11.424085974251	18
4	134	11.424085974251	19
4	134	11.424085974251	20
4	165	15.01641918623	21
4	165	15.01641918623	22
4	165	15.01641918623	23
4	180	16.423954062961	24
4	180	16.423954062961	25
4	180	16.423954062961	26
4	198	18.281029607566	27
4	198	18.281029607566	28
4	198	18.281029607566	29
4	219	20.143539921011	30
4	219	20.143539921011	31
4	219	20.143539921011	32
4	234	21.422557607154	33
4	234	21.422557607154	34
4	234	21.422557607154	35
4	252	23.399464154274	36
4	252	23.399464154274	37
4	252	23.399464154274	38
4	273	25.065461944989	39
4	273	25.065461944989	40
4	273	25.065461944989	41
4	288	26.458600049382	42
4	288	26.458600049382	43
4	288	26.458600049382	44
4	305	27.765318109083	45
4	305	27.765318109083	46
4	305	27.765318109083	47
4	329	30.568549661329	48
4	329	30.568549661329	49
4	329	30.568549661329	50
4	351	32.523686772544	51
4	351	32.523686772544	52
4	351	32.523686772544	53
4	369	34.26943711491	54
4	369	34.26943711491	55
4	369	34.26943711491	56
4	387	35.874952681475	57
4	387	35.874952681475	58
4	387	35.874952681475	59
4	408	39.701004370796	60
4	408	39.701004370796	61
4	408	39.701004370796	62
4	425	40.760579084287	63
4	425	40.760579084287	64
4	425	40.760579084287	65
4	444	42.446308388272	66
4	444	42.446308388272	67
4	444	42.446308388272	68
4	461	44.349373421216	69
4	461	44.349373421216	70
4	461	44.349373421216	71
4	483	45.819676123526	72
4	483	45.819676123526	73
4	483	45.819676123526	74
4	501	46.957978138122	75
4	501	46.957978138122	76
4	501	46.957978138122	77
4	516	48.114286663405	78
4	516	48.114286663405	79
4	516	48.114286663405	80
4	535	50.926072402737	81
4	535	50.926072402737	82
4	535	50.926072402737	83
4	553	52.495331090122	84
4	553	52.495331090122	85
4	553	52.495331090122	86
4	575	54.101589156934	87
4	575	54.101589156934	88
4	575	54.101589156934	89
4	589	55.938614449774	90
4	589	55.938614449774	91
4	589	55.938614449774	92
4	608	57.222998216123	93
4	608	57.222998216123	94
4	608	57.222998216123	95
4	625	58.544437809823	96
4	625	58.544437809823	97
4	625	58.544437809823	98
4	644	60.526730271245	99
4	644	60.526730271245	100
4	644	60.526730271245	101
4	665	62.263062807562	102
4	665	62.263062807562	103
4	665	62.263062807562	104
4	683	63.834850498353	105
4	683	63.834850498353	106
4	683	63.834850498353	107
4	701	65.661104499375	108
4	701	65.661104499375	109
4	701	65.661104499375	110
4	716	67.343801720888	111
4	716	67.343801720888	112
4	716	67.343801720888	113
4	734	68.925472375047	114
4	734	68.925472375047	115
4	734	68.925472375047	116
4	755	70.538647084051	117
4	755	70.538647084051	118
4	755	70.538647084051	119
4	770	72.091202151304	120
4	770	72.091202151304	121
4	770	72.091202151304	122
4	788	74.036241239066	123
4	788	74.036241239066	124
4	788	74.036241239066	125
4	822	78.567164330239	126
4	822	78.567164330239	127
4	822	78.567164330239	128
4	843	79.633959736896	129
4	843	79.633959736896	130
4	843	79.633959736896	131
4	857	81.216969930478	132
4	857	81.216969930478	133
4	857	81.216969930478	134
4	879	83.076925410293	135
4	879	83.076925410293	136
4	879	83.076925410293	137
4	897	84.672579526048	138
4	897	84.672579526048	139
4	897	84.672579526048	140
4	911	86.033369504546	141
4	911	86.033369504546	142
4	911	86.033369504546	143
4	933	87.168099248419	144
4	933	87.168099248419	145
4	933	87.168099248419	146
4	951	88.828866701503	147
4	951	88.828866701503	148
4	951	88.828866701503	149
4	969	90.148083532251	150
4	969	90.148083532251	151
4	969	90.148083532251	152
4	987	91.323328129765	153
4	987	91.323328129765	154
4	987	91.323328129765	155
4	1002	93.28287253838	156
4	1002	93.28287253838	157
4	1002	93.28287253838	158
4	1023	94.550877394029	159
4	1023	94.550877394029	160
4	1023	94.550877394029	161
4	1041	95.862961478977	162
4	1041	95.862961478977	163
4	1041	95.862961478977	164
4	1059	97.387606727067	165
4	1059	97.387606727067	166
4	1059	97.387606727067	167
4	1077	99.002112526597	168
4	1077	99.002112526597	169
4	1077	99.002112526597	170
4	1095	100.945614329669	171
4	1095	100.945614329669	172
4	1095	100.945614329669	173
4	1113	102.169636962025	174
4	1113	102.169636962025	175
4	1113	102.169636962025	176
4	1127	103.183634470612	177
4	1127	103.183634470612	178
4	1127	103.183634470612	179
4	1146	105.048082078696	180
4	1146	105.048082078696	181
4	1146	105.048082078696	182
4	1163	106.735892653105	183
4	1163	106.735892653105	184
4	1163	106.735892653105	185
4	1188	113.146432751758	186
4	1188	113.146432751758	187
4	1188	113.146432751758	188
4	1209	114.608474826114	189
4	1209	114.608474826114	190
4	1209	114.608474826114	191
4	1227	116.285717897786	192
4	1227	116.285717897786	193
4	1227	116.285717897786	194
4	1241	117.913051122329	195
4	1241	117.913051122329	196
4	1241	117.913051122329	197
4	1260	119.574900511843	198
4	1260	119.574900511843	199
4	1260	119.574900511843	200
4	1281	121.119570468644	201
4	1281	121.119570468644	202
4	1281	121.119570468644	203
4	1299	123.013549153182	204
4	1299	123.013549153182	205
4	1299	123.013549153182	206
4	1313	124.868514183178	207
4	1313	124.868514183178	208
4	1313	124.868514183178	209
4	1332	126.252280106183	210
4	1332	126.252280106183	211
4	1332	126.252280106183	212
4	1353	127.359607818479	213
4	1353	127.359607818479	214
4	1353	127.359607818479	215
4	1368	128.745879481121	216
4	1368	128.745879481121	217
4	1368	128.745879481121	218
4	1385	130.590259634241	219
4	1385	130.590259634241	220
4	1385	130.590259634241	221
4	1406	132.965775235675	222
4	1406	132.965775235675	223
4	1406	132.965775235675	224
4	1427	137.484512510939	225
4	1427	137.484512510939	226
4	1427	137.484512510939	227
4	1449	138.724099438803	228
4	1449	138.724099438803	229
4	1449	138.724099438803	230
4	1467	140.010858734527	231
4	1467	140.010858734527	232
4	1467	140.010858734527	233
4	1495	142.70402511733	234
4	1495	142.70402511733	235
4	1495	142.70402511733	236
4	1513	144.308164522414	237
4	1513	144.308164522414	238
4	1513	144.308164522414	239
4	1535	145.741078576196	240
4	1535	145.741078576196	241
4	1535	145.741078576196	242
4	1553	147.361017309385	243
4	1553	147.361017309385	244
4	1553	147.361017309385	245
4	1571	149.062873481331	246
4	1571	149.062873481331	247
4	1571	149.062873481331	248
4	1586	150.583342681116	249
4	1586	150.583342681116	250
4	1586	150.583342681116	251
4	1607	151.676847490416	252
4	1607	151.676847490416	253
4	1607	151.676847490416	254
4	1625	153.572598555408	255
4	1625	153.572598555408	256
4	1625	153.572598555408	257
4	1643	155.099717828948	258
4	1643	155.099717828948	259
4	1643	155.099717828948	260
4	1657	156.175945263585	261
4	1657	156.175945263585	262
4	1657	156.175945263585	263
4	1689	159.316674554889	264
4	1689	159.316674554889	265
4	1689	159.316674554889	266
4	1707	160.82994941225	267
4	1707	160.82994941225	268
4	1707	160.82994941225	269
4	1722	162.394599807108	270
4	1722	162.394599807108	271
4	1722	162.394599807108	272
4	1740	164.283006410488	273
4	1740	164.283006410488	274
4	1740	164.283006410488	275
4	1761	165.753733670627	276
4	1761	165.753733670627	277
4	1761	165.753733670627	278
4	1779	167.571547683786	279
4	1779	167.571547683786	280
4	1779	167.571547683786	281
4	1797	168.95619399388	282
4	1797	168.95619399388	283
4	1797	168.95619399388	284
4	1812	170.265110406531	285
4	1812	170.265110406531	286
4	1812	170.265110406531	287
4	1833	172.01510067304	288
4	1833	172.01510067304	289
4	1833	172.01510067304	290
4	1851	173.150237752214	291
4	1851	173.150237752214	292
4	1851	173.150237752214	293
4	1865	174.695558389424	294
4	1865	174.695558389424	295
4	1865	174.695558389424	296
4	1883	176.696372667817	297
4	1883	176.696372667817	298
4	1883	176.696372667817	299
4	1902	178.598656318994	300
4	1902	178.598656318994	301
4	1902	178.598656318994	302
4	1920	180.097121771255	303
4	1920	180.097121771255	304
4	1920	180.097121771255	305
4	1941	181.539946634037	306
4	1941	181.539946634037	307
4	1941	181.539946634037	308
4	1959	183.399883912899	309
4	1959	183.399883912899	310
4	1959	183.399883912899	311
4	1974	184.856766933599	312
4	1974	184.856766933599	313
4	1974	184.856766933599	314
4	1995	185.976453300733	315
4	1995	185.976453300733	316
4	1995	185.976453300733	317
4	2013	187.026854674145	318
4	2013	187.026854674145	319
4	2013	187.026854674145	320
4	2028	188.889944245264	321
4	2028	188.889944245264	322
4	2028	188.889944245264	323
4	2046	190.018160476053	324
4	2046	190.018160476053	325
4	2046	190.018160476053	326
4	2067	191.806268647545	327
4	2067	191.806268647545	328
4	2067	191.806268647545	329
4	2085	193.705083024622	330
4	2085	193.705083024622	331
4	2085	193.705083024622	332
4	2117	196.2493833521	333
4	2117	196.2493833521	334
4	2117	196.2493833521	335
4	2135	198.166641884207	336
4	2135	198.166641884207	337
4	2135	198.166641884207	338
4	2152	200.40428463912	339
4	2152	200.40428463912	340
4	2152	200.40428463912	341
4	2169	202.324893002009	342
4	2169	202.324893002009	343
4	2169	202.324893002009	344
4	2187	203.503841563079	345
4	2187	203.503841563079	346
4	2187	203.503841563079	347
4	2205	204.7579634601	348
4	2205	204.7579634601	349
4	2205	204.7579634601	350
4	2229	208.689237725325	351
4	2229	208.689237725325	352
4	2229	208.689237725325	353
4	2246	212.240894989054	354
4	2246	212.240894989054	355
4	2246	212.240894989054	356
4	2267	213.593688787386	357
4	2267	213.593688787386	358
4	2267	213.593688787386	359
4	2285	215.418309744266	360
4	2285	215.418309744266	361
4	2285	215.418309744266	362
4	2300	216.646077493951	363
4	2300	216.646077493951	364
4	2300	216.646077493951	365
4	2317	217.851958532028	366
4	2317	217.851958532028	367
4	2317	217.851958532028	368
4	2342	220.786944992441	369
4	2342	220.786944992441	370
4	2342	220.786944992441	371
4	2359	221.875365492819	372
4	2359	221.875365492819	373
4	2359	221.875365492819	374
4	2381	223.586015070577	375
4	2381	223.586015070577	376
4	2381	223.586015070577	377
4	2399	225.339088574511	378
4	2399	225.339088574511	379
4	2399	225.339088574511	380
4	2417	227.148561959165	381
4	2417	227.148561959165	382
4	2417	227.148561959165	383
4	2441	229.595269596038	384
4	2441	229.595269596038	385
4	2441	229.595269596038	386
4	2456	230.603675715795	387
4	2456	230.603675715795	388
4	2456	230.603675715795	389
4	2474	232.124908706459	390
4	2474	232.124908706459	391
4	2474	232.124908706459	392
4	2491	233.412426593716	393
4	2491	233.412426593716	394
4	2491	233.412426593716	395
4	2509	234.89439734649	396
4	2509	234.89439734649	397
4	2509	234.89439734649	398
4	2531	235.955585564929	399
4	2531	235.955585564929	400
4	2531	235.955585564929	401
4	2549	237.207594986607	402
4	2549	237.207594986607	403
4	2549	237.207594986607	404
4	2564	238.44178158388	405
4	2564	238.44178158388	406
4	2564	238.44178158388	407
4	2585	239.61688723144	408
4	2585	239.61688723144	409
4	2585	239.61688723144	410
5	18	0.184136284395	0
5	50	3.292829156097	1
5	83	6.19223992752	2
5	104	7.515676275008	3
5	122	9.486683741166	4
5	140	11.434085974251	5
5	168	15.02641918623	6
5	186	16.433954062961	7
5	204	18.291029607566	8
5	222	20.153539921011	9
5	240	21.432557607154	10
5	258	23.409464154274	11
5	276	25.075461944989	12
5	294	26.468600049382	13
5	309	27.775318109083	14
5	332	30.578549661329	15
5	354	32.533686772544	16
5	372	34.27943711491	17
5	390	35.884952681475	18
5	414	39.711004370796	19
5	428	40.770579084287	20
5	450	42.456308388272	21
5	465	44.359373421216	22
5	486	45.829676123526	23
5	504	46.967978138122	24
5	522	48.124286663405	25
5	539	50.936072402737	26
5	557	52.505331090122	27
5	578	54.111589156934	28
5	593	55.948614449774	29
5	629	58.554437809823	30
5	650	60.536730271245	31
5	668	62.273062807562	32
5	704	65.671104499375	33
5	722	67.353801720888	34
5	740	68.935472375047	35
5	758	70.548647084051	36
5	776	72.101202151304	37
5	794	74.046241239066	38
5	828	78.577164330239	39
5	846	79.643959736896	40
5	860	81.226969930478	41
5	882	83.086925410293	42
5	900	84.682579526048	43
5	914	86.043369504546	44
5	936	87.178099248419	45
5	954	88.838866701503	46
5	972	90.158083532251	47
5	990	91.333328129765	48
5	1008	93.29287253838	49
5	1026	94.560877394029	50
5	1062	97.397606727067	51
5	1098	100.955614329669	52
5	1116	102.179636962025	53
5	1130	103.193634470612	54
5	1152	105.058082078696	55
5	1167	106.745892653105	56
5	1194	113.156432751758	57
5	1212	114.618474826114	58
5	1230	116.295717897786	59
5	1245	117.923051122329	60
5	1266	119.584900511843	61
5	1284	121.129570468644	62
5	1302	123.023549153182	63
5	1317	124.878514183178	64
5	1338	126.262280106183	65
5	1356	127.369607818479	66
5	1374	128.755879481121	67
5	1389	130.600259634241	68
5	1412	132.975775235675	69
5	1431	137.494512510939	70
5	1452	138.734099438803	71
5	1470	140.020858734527	72
5	1499	142.71402511733	73
5	1517	144.318164522414	74
5	1538	145.751078576196	75
5	1556	147.371017309385	76
5	1592	150.593342681116	77
5	1610	151.686847490416	78
5	1628	153.582598555408	79
5	1660	156.185945263585	80
5	1692	159.326674554889	81
5	1710	160.83994941225	82
5	1728	162.404599807108	83
5	1746	164.293006410488	84
5	1764	165.763733670627	85
5	1782	167.581547683786	86
5	1800	168.96619399388	87
5	1818	170.275110406531	88
5	1836	172.02510067304	89
5	1868	174.705558389424	90
5	1887	176.706372667817	91
5	1908	178.608656318994	92
5	1926	180.107121771255	93
5	1944	181.549946634037	94
5	1962	183.409883912899	95
5	1998	185.986453300733	96
5	2016	187.036854674145	97
5	2034	188.899944245264	98
5	2052	190.028160476053	99
5	2070	191.816268647545	100
5	2120	196.2593833521	101
5	2138	198.176641884207	102
5	2158	200.41428463912	103
5	2172	202.334893002009	104
5	2191	203.513841563079	105
5	2208	204.7679634601	106
5	2232	208.699237725325	107
5	2252	212.250894989054	108
5	2270	213.603688787386	109
5	2288	215.428309744266	110
5	2306	216.656077493951	111
5	2321	217.861958532028	112
5	2348	220.796944992441	113
5	2363	221.885365492819	114
5	2384	223.596015070577	115
5	2402	225.349088574511	116
5	2444	229.605269596038	117
5	2462	230.613675715795	118
5	2480	232.134908706459	119
5	2495	233.422426593716	120
5	2512	234.90439734649	121
5	2534	235.965585564929	122
5	2552	237.217594986607	123
5	2570	238.45178158388	124

