version 2
run General-1-20230921-21:31:29-5391
attr configname General
attr datetime 20230921-21:31:29
attr experiment General
attr inifile omnetpp.ini
attr iterationvars ""
attr iterationvarsf ""
attr measurement ""
attr network Network1
attr processid 5391
attr repetition 1
attr replication #1
attr resultdir results
attr runnumber 1
attr seedset 1
param Network1.node[*].transmissionTime "uniform(1s, 2s)"
param Network1.node[*].delayTime "uniform(0.01s, 0.2s)"
param Network1.node[*].processingTime exponential(0.01s)
param Network1.node[*].lossProbability 0.1

vector 0 Network1.node[0] txVector ETV
vector 1 Network1.node[1] txVector ETV
vector 2 Network1.node[3] txVector ETV
vector 3 Network1.node[2] txVector ETV
vector 4 Network1.node[4] txVector ETV
vector 5 Network1.node[5] rxVector ETV
0	1	0.089234179703	0
0	19	2.086418987836	1
0	37	3.932729906055	2
0	55	5.871857700988	3
0	73	7.144907678363	4
0	91	8.928222150893	5
0	109	10.397460675684	6
0	111	11.981849799517	7
0	129	13.547761828059	8
0	147	15.313246935259	9
0	165	16.690831280432	10
0	183	18.044770372219	11
0	201	19.108837699171	12
0	219	20.687471631102	13
0	237	21.757553125851	14
0	255	23.276415001255	15
0	273	24.554733843895	16
0	291	26.167681934199	17
0	309	27.949640396869	18
0	327	29.101777554143	19
0	345	30.99479876587	20
0	363	32.140831509492	21
0	381	33.236250753867	22
0	383	34.560768254221	23
0	401	36.288779894475	24
0	419	38.213980002448	25
0	437	39.582356856324	26
0	439	40.916542076858	27
0	457	42.388625502473	28
0	475	43.412509595396	29
0	493	44.630902830398	30
0	511	45.646775810167	31
0	529	46.856268691018	32
0	547	47.860932003826	33
0	565	49.028762802601	34
0	583	50.546356789887	35
0	601	51.565675541412	36
0	619	53.430765177708	37
0	637	54.570045227071	38
0	655	56.243192506142	39
0	673	57.92363257299	40
0	691	59.316572840445	41
0	709	61.039937592231	42
0	727	62.712272151726	43
0	745	64.123626559394	44
0	763	65.700906006041	45
0	781	66.970787297356	46
0	799	68.695767418369	47
0	817	69.915291507383	48
0	835	71.372269414718	49
0	853	73.190037803611	50
0	871	75.148737707528	51
0	889	76.928237895601	52
0	907	78.704452521753	53
0	925	80.565642163044	54
0	943	82.413432143515	55
0	961	84.334450005207	56
0	979	86.221370465008	57
0	997	88.040975122598	58
0	1015	89.681880383172	59
0	1033	91.121284819792	60
0	1051	92.299338175568	61
0	1053	94.01043349493	62
0	1055	95.203894066044	63
0	1073	96.27232512634	64
0	1091	97.328618795497	65
0	1109	98.440518553953	66
0	1127	99.580149808784	67
0	1145	101.555141118473	68
0	1163	103.177729693592	69
0	1181	104.424650179107	70
0	1199	106.401131162072	71
0	1217	108.321828506539	72
0	1235	109.795665610001	73
0	1253	111.73062023672	74
0	1271	113.54357598501	75
0	1289	115.334556146411	76
0	1307	116.911004782773	77
0	1325	118.6950296046	78
0	1343	119.956289971831	79
0	1361	121.660852171832	80
0	1379	123.492292984973	81
0	1381	124.554133064465	82
0	1399	126.259017370061	83
0	1417	127.460324581598	84
0	1435	128.810778797024	85
0	1453	129.91407842457	86
0	1455	131.396325833981	87
0	1473	133.066213836779	88
0	1491	134.923137951761	89
0	1509	136.008297827912	90
0	1527	137.25299005362	91
0	1545	138.814821958428	92
0	1563	140.107121054901	93
0	1581	141.203895075599	94
0	1599	142.209902605394	95
0	1617	143.538683724476	96
0	1635	144.928757105142	97
0	1653	146.49362471409	98
0	1655	148.131702324961	99
0	1673	149.367901711612	100
0	1691	151.350150669579	101
0	1709	152.848733326773	102
0	1727	153.859411548943	103
0	1741	154.922947502349	104
0	1755	156.0362441215	105
0	1773	157.70078687149	106
0	1775	159.200597773659	107
0	1793	160.288145894305	108
0	1811	161.924686182876	109
0	1829	163.771198757346	110
0	1847	165.416328182099	111
0	1865	166.487627790663	112
0	1883	168.384327391283	113
0	1901	170.210360638918	114
0	1919	172.154619608894	115
0	1937	173.445967838289	116
0	1955	174.788163096765	117
0	1973	176.106094140913	118
0	1975	177.890904713776	119
0	1993	179.263370212289	120
0	2011	180.690582849905	121
0	2013	182.354982876806	122
0	2031	184.304359771666	123
0	2049	185.347078117431	124
0	2051	187.229162048205	125
0	2065	188.658836710622	126
0	2083	189.723243111401	127
0	2101	191.078205024014	128
0	2119	192.905288717598	129
0	2137	194.17133168865	130
0	2155	195.483855183125	131
0	2173	196.541666715062	132
0	2191	198.437162678345	133
0	2193	199.98553616589	134
0	2211	201.283389103953	135
0	2229	202.933824914163	136
0	2243	204.871334139379	137
0	2261	206.802391412789	138
0	2279	208.725787798762	139
0	2281	210.034580543758	140
0	2299	211.505382970795	141
0	2317	213.49795102573	142
0	2323	214.820603880221	143
0	2341	216.246175334211	144
0	2359	217.545802571931	145
0	2377	219.329043262526	146
0	2395	221.125359101574	147
0	2413	222.204497573086	148
0	2431	224.063259211023	149
0	2449	225.537426786617	150
0	2467	227.10870031163	151
0	2485	228.61368890142	152
0	2503	230.318993502417	153
0	2521	232.300985389742	154
0	2539	233.478291021314	155
0	2557	235.45968129102	156
0	2575	236.460270392362	157
0	2593	237.53095559974	158
0	2611	238.891897451252	159
1	3	0.126198958082	0
1	3	0.126198958082	1
1	3	0.126198958082	2
1	21	2.100177179763	3
1	21	2.100177179763	4
1	21	2.100177179763	5
1	39	3.957798233545	6
1	39	3.957798233545	7
1	39	3.957798233545	8
1	57	5.88246840717	9
1	57	5.88246840717	10
1	57	5.88246840717	11
1	75	7.160227129908	12
1	75	7.160227129908	13
1	75	7.160227129908	14
1	93	8.93923331578	15
1	93	8.93923331578	16
1	93	8.93923331578	17
1	113	12.001367380769	18
1	113	12.001367380769	19
1	113	12.001367380769	20
1	131	13.558225888257	21
1	131	13.558225888257	22
1	131	13.558225888257	23
1	149	15.330978035891	24
1	149	15.330978035891	25
1	149	15.330978035891	26
1	167	16.715238070287	27
1	167	16.715238070287	28
1	167	16.715238070287	29
1	185	18.059160234832	30
1	185	18.059160234832	31
1	185	18.059160234832	32
1	203	19.118928187299	33
1	203	19.118928187299	34
1	203	19.118928187299	35
1	221	20.703867222101	36
1	221	20.703867222101	37
1	221	20.703867222101	38
1	239	21.769443909461	39
1	239	21.769443909461	40
1	239	21.769443909461	41
1	257	23.289075805724	42
1	257	23.289075805724	43
1	257	23.289075805724	44
1	275	24.570300965884	45
1	275	24.570300965884	46
1	275	24.570300965884	47
1	293	26.187261631353	48
1	293	26.187261631353	49
1	293	26.187261631353	50
1	311	27.961403217537	51
1	311	27.961403217537	52
1	311	27.961403217537	53
1	329	29.126021621079	54
1	329	29.126021621079	55
1	329	29.126021621079	56
1	347	31.011907575632	57
1	347	31.011907575632	58
1	347	31.011907575632	59
1	365	32.152601333979	60
1	365	32.152601333979	61
1	365	32.152601333979	62
1	385	34.578165122133	63
1	385	34.578165122133	64
1	385	34.578165122133	65
1	403	36.30105530551	66
1	403	36.30105530551	67
1	403	36.30105530551	68
1	421	38.233375774857	69
1	421	38.233375774857	70
1	421	38.233375774857	71
1	441	40.927655764932	72
1	441	40.927655764932	73
1	441	40.927655764932	74
1	459	42.432359419622	75
1	459	42.432359419622	76
1	459	42.432359419622	77
1	477	43.425369100453	78
1	477	43.425369100453	79
1	477	43.425369100453	80
1	495	44.641412721858	81
1	495	44.641412721858	82
1	495	44.641412721858	83
1	513	45.662178059176	84
1	513	45.662178059176	85
1	513	45.662178059176	86
1	531	46.869336705287	87
1	531	46.869336705287	88
1	531	46.869336705287	89
1	549	47.876397823057	90
1	549	47.876397823057	91
1	549	47.876397823057	92
1	567	49.038928800417	93
1	567	49.038928800417	94
1	567	49.038928800417	95
1	585	50.557050634198	96
1	585	50.557050634198	97
1	585	50.557050634198	98
1	603	51.576434888855	99
1	603	51.576434888855	100
1	603	51.576434888855	101
1	621	53.4485370887	102
1	621	53.4485370887	103
1	621	53.4485370887	104
1	639	54.580615792312	105
1	639	54.580615792312	106
1	639	54.580615792312	107
1	657	56.254891103425	108
1	657	56.254891103425	109
1	657	56.254891103425	110
1	675	57.934474911511	111
1	675	57.934474911511	112
1	675	57.934474911511	113
1	693	59.340812885837	114
1	693	59.340812885837	115
1	693	59.340812885837	116
1	711	61.065030000157	117
1	711	61.065030000157	118
1	711	61.065030000157	119
1	729	62.756099803827	120
1	729	62.756099803827	121
1	729	62.756099803827	122
1	747	64.158575922835	123
1	747	64.158575922835	124
1	747	64.158575922835	125
1	765	65.717575786287	126
1	765	65.717575786287	127
1	765	65.717575786287	128
1	783	66.984395150023	129
1	783	66.984395150023	130
1	783	66.984395150023	131
1	801	68.719166526152	132
1	801	68.719166526152	133
1	801	68.719166526152	134
1	819	69.92977431565	135
1	819	69.92977431565	136
1	819	69.92977431565	137
1	837	71.392949737112	138
1	837	71.392949737112	139
1	837	71.392949737112	140
1	855	73.24342196986	141
1	855	73.24342196986	142
1	855	73.24342196986	143
1	873	75.210524926366	144
1	873	75.210524926366	145
1	873	75.210524926366	146
1	891	76.960325774725	147
1	891	76.960325774725	148
1	891	76.960325774725	149
1	909	78.728130055351	150
1	909	78.728130055351	151
1	909	78.728130055351	152
1	927	80.586075562118	153
1	927	80.586075562118	154
1	927	80.586075562118	155
1	945	82.423890871935	156
1	945	82.423890871935	157
1	945	82.423890871935	158
1	963	84.366239700594	159
1	963	84.366239700594	160
1	963	84.366239700594	161
1	981	86.249623907869	162
1	981	86.249623907869	163
1	981	86.249623907869	164
1	999	88.052342568125	165
1	999	88.052342568125	166
1	999	88.052342568125	167
1	1017	89.69362887528	168
1	1017	89.69362887528	169
1	1017	89.69362887528	170
1	1035	91.140042032229	171
1	1035	91.140042032229	172
1	1035	91.140042032229	173
1	1057	95.23506807531	174
1	1057	95.23506807531	175
1	1057	95.23506807531	176
1	1075	96.286308325668	177
1	1075	96.286308325668	178
1	1075	96.286308325668	179
1	1093	97.342373218457	180
1	1093	97.342373218457	181
1	1093	97.342373218457	182
1	1111	98.450700916261	183
1	1111	98.450700916261	184
1	1111	98.450700916261	185
1	1129	99.602121009551	186
1	1129	99.602121009551	187
1	1129	99.602121009551	188
1	1147	101.571267874	189
1	1147	101.571267874	190
1	1147	101.571267874	191
1	1165	103.190604776648	192
1	1165	103.190604776648	193
1	1165	103.190604776648	194
1	1183	104.435241812917	195
1	1183	104.435241812917	196
1	1183	104.435241812917	197
1	1201	106.421921110934	198
1	1201	106.421921110934	199
1	1201	106.421921110934	200
1	1219	108.338459416504	201
1	1219	108.338459416504	202
1	1219	108.338459416504	203
1	1237	109.813272962049	204
1	1237	109.813272962049	205
1	1237	109.813272962049	206
1	1255	111.772866062107	207
1	1255	111.772866062107	208
1	1255	111.772866062107	209
1	1273	113.567403884777	210
1	1273	113.567403884777	211
1	1273	113.567403884777	212
1	1291	115.346805932102	213
1	1291	115.346805932102	214
1	1291	115.346805932102	215
1	1309	116.936532362537	216
1	1309	116.936532362537	217
1	1309	116.936532362537	218
1	1327	118.710995538645	219
1	1327	118.710995538645	220
1	1327	118.710995538645	221
1	1345	119.97676349384	222
1	1345	119.97676349384	223
1	1345	119.97676349384	224
1	1363	121.678334841151	225
1	1363	121.678334841151	226
1	1363	121.678334841151	227
1	1383	124.568567759015	228
1	1383	124.568567759015	229
1	1383	124.568567759015	230
1	1401	126.270320211898	231
1	1401	126.270320211898	232
1	1401	126.270320211898	233
1	1419	127.473362587505	234
1	1419	127.473362587505	235
1	1419	127.473362587505	236
1	1437	128.850742464815	237
1	1437	128.850742464815	238
1	1437	128.850742464815	239
1	1457	131.423081489054	240
1	1457	131.423081489054	241
1	1457	131.423081489054	242
1	1475	133.088370894323	243
1	1475	133.088370894323	244
1	1475	133.088370894323	245
1	1493	134.938737213832	246
1	1493	134.938737213832	247
1	1493	134.938737213832	248
1	1511	136.028926785434	249
1	1511	136.028926785434	250
1	1511	136.028926785434	251
1	1529	137.264430530286	252
1	1529	137.264430530286	253
1	1529	137.264430530286	254
1	1547	138.826388803118	255
1	1547	138.826388803118	256
1	1547	138.826388803118	257
1	1565	140.118703099399	258
1	1565	140.118703099399	259
1	1565	140.118703099399	260
1	1583	141.223406994994	261
1	1583	141.223406994994	262
1	1583	141.223406994994	263
1	1601	142.236539950026	264
1	1601	142.236539950026	265
1	1601	142.236539950026	266
1	1619	143.54916382512	267
1	1619	143.54916382512	268
1	1619	143.54916382512	269
1	1637	144.940637727343	270
1	1637	144.940637727343	271
1	1637	144.940637727343	272
1	1657	148.143407956868	273
1	1657	148.143407956868	274
1	1657	148.143407956868	275
1	1675	149.406469234997	276
1	1675	149.406469234997	277
1	1675	149.406469234997	278
1	1693	151.360230768402	279
1	1693	151.360230768402	280
1	1693	151.360230768402	281
1	1711	152.899359476432	282
1	1711	152.899359476432	283
1	1711	152.899359476432	284
1	1729	153.87305035997	285
1	1729	153.87305035997	286
1	1729	153.87305035997	287
1	1743	154.962674866183	288
1	1743	154.962674866183	289
1	1743	154.962674866183	290
1	1757	156.048793092024	291
1	1757	156.048793092024	292
1	1757	156.048793092024	293
1	1777	159.210728772857	294
1	1777	159.210728772857	295
1	1777	159.210728772857	296
1	1795	160.323522288898	297
1	1795	160.323522288898	298
1	1795	160.323522288898	299
1	1813	161.963777902484	300
1	1813	161.963777902484	301
1	1813	161.963777902484	302
1	1831	163.798646213244	303
1	1831	163.798646213244	304
1	1831	163.798646213244	305
1	1849	165.430410097762	306
1	1849	165.430410097762	307
1	1849	165.430410097762	308
1	1867	166.502722621932	309
1	1867	166.502722621932	310
1	1867	166.502722621932	311
1	1885	168.396382085261	312
1	1885	168.396382085261	313
1	1885	168.396382085261	314
1	1903	170.22399111714	315
1	1903	170.22399111714	316
1	1903	170.22399111714	317
1	1921	172.167041467207	318
1	1921	172.167041467207	319
1	1921	172.167041467207	320
1	1939	173.471733326142	321
1	1939	173.471733326142	322
1	1939	173.471733326142	323
1	1957	174.805006042313	324
1	1957	174.805006042313	325
1	1957	174.805006042313	326
1	1977	177.901543079448	327
1	1977	177.901543079448	328
1	1977	177.901543079448	329
1	1995	179.301685776404	330
1	1995	179.301685776404	331
1	1995	179.301685776404	332
1	2015	182.369092267744	333
1	2015	182.369092267744	334
1	2015	182.369092267744	335
1	2033	184.324403447064	336
1	2033	184.324403447064	337
1	2033	184.324403447064	338
1	2053	187.242360471015	339
1	2053	187.242360471015	340
1	2053	187.242360471015	341
1	2067	188.674935042902	342
1	2067	188.674935042902	343
1	2067	188.674935042902	344
1	2085	189.738389395277	345
1	2085	189.738389395277	346
1	2085	189.738389395277	347
1	2103	191.09898604789	348
1	2103	191.09898604789	349
1	2103	191.09898604789	350
1	2121	192.927135635028	351
1	2121	192.927135635028	352
1	2121	192.927135635028	353
1	2139	194.195215614418	354
1	2139	194.195215614418	355
1	2139	194.195215614418	356
1	2157	195.501021333028	357
1	2157	195.501021333028	358
1	2157	195.501021333028	359
1	2175	196.556462524056	360
1	2175	196.556462524056	361
1	2175	196.556462524056	362
1	2195	200.01128512977	363
1	2195	200.01128512977	364
1	2195	200.01128512977	365
1	2213	201.317840735641	366
1	2213	201.317840735641	367
1	2213	201.317840735641	368
1	2231	202.978884106682	369
1	2231	202.978884106682	370
1	2231	202.978884106682	371
1	2245	204.887098326959	372
1	2245	204.887098326959	373
1	2245	204.887098326959	374
1	2263	206.834348601703	375
1	2263	206.834348601703	376
1	2263	206.834348601703	377
1	2283	210.056394420357	378
1	2283	210.056394420357	379
1	2283	210.056394420357	380
1	2301	211.516916555812	381
1	2301	211.516916555812	382
1	2301	211.516916555812	383
1	2319	213.514421335591	384
1	2319	213.514421335591	385
1	2319	213.514421335591	386
1	2325	214.862265925777	387
1	2325	214.862265925777	388
1	2325	214.862265925777	389
1	2343	216.263883086546	390
1	2343	216.263883086546	391
1	2343	216.263883086546	392
1	2361	217.561605034464	393
1	2361	217.561605034464	394
1	2361	217.561605034464	395
1	2379	219.346069851809	396
1	2379	219.346069851809	397
1	2379	219.346069851809	398
1	2397	221.157265579039	399
1	2397	221.157265579039	400
1	2397	221.157265579039	401
1	2415	222.230548457875	402
1	2415	222.230548457875	403
1	2415	222.230548457875	404
1	2433	224.076377753353	405
1	2433	224.076377753353	406
1	2433	224.076377753353	407
1	2451	225.551364094276	408
1	2451	225.551364094276	409
1	2451	225.551364094276	410
1	2469	227.121935795398	411
1	2469	227.121935795398	412
1	2469	227.121935795398	413
1	2487	228.625074449395	414
1	2487	228.625074449395	415
1	2487	228.625074449395	416
1	2505	230.344241681225	417
1	2505	230.344241681225	418
1	2505	230.344241681225	419
1	2523	232.322064031967	420
1	2523	232.322064031967	421
1	2523	232.322064031967	422
1	2541	233.493791780174	423
1	2541	233.493791780174	424
1	2541	233.493791780174	425
1	2559	235.478008259305	426
1	2559	235.478008259305	427
1	2559	235.478008259305	428
1	2577	236.474654428828	429
1	2577	236.474654428828	430
1	2577	236.474654428828	431
1	2595	237.56288360477	432
1	2595	237.56288360477	433
1	2595	237.56288360477	434
1	2613	238.932335449403	435
1	2613	238.932335449403	436
1	2613	238.932335449403	437
2	7	0.137786054054	0
2	7	0.137786054054	1
2	7	0.137786054054	2
2	29	2.131224152726	3
2	29	2.131224152726	4
2	29	2.131224152726	5
2	43	3.971558619769	6
2	43	3.971558619769	7
2	43	3.971558619769	8
2	62	5.897934794091	9
2	62	5.897934794091	10
2	62	5.897934794091	11
2	79	7.180009588724	12
2	79	7.180009588724	13
2	79	7.180009588724	14
2	97	8.95062626484	15
2	97	8.95062626484	16
2	97	8.95062626484	17
2	118	12.02339905744	18
2	118	12.02339905744	19
2	118	12.02339905744	20
2	139	13.597156699046	21
2	139	13.597156699046	22
2	139	13.597156699046	23
2	153	15.34525155259	24
2	153	15.34525155259	25
2	153	15.34525155259	26
2	171	16.730825827526	27
2	171	16.730825827526	28
2	171	16.730825827526	29
2	189	18.071865560866	30
2	189	18.071865560866	31
2	189	18.071865560866	32
2	212	19.152846192137	33
2	212	19.152846192137	34
2	212	19.152846192137	35
2	225	20.725801447404	36
2	225	20.725801447404	37
2	225	20.725801447404	38
2	244	21.779731057884	39
2	244	21.779731057884	40
2	244	21.779731057884	41
2	261	23.30751705673	42
2	261	23.30751705673	43
2	261	23.30751705673	44
2	279	24.588425685264	45
2	279	24.588425685264	46
2	279	24.588425685264	47
2	297	26.207884158334	48
2	297	26.207884158334	49
2	297	26.207884158334	50
2	320	28.006475461869	51
2	320	28.006475461869	52
2	320	28.006475461869	53
2	337	29.155160591687	54
2	337	29.155160591687	55
2	337	29.155160591687	56
2	351	31.032970983195	57
2	351	31.032970983195	58
2	351	31.032970983195	59
2	374	32.185818192119	60
2	374	32.185818192119	61
2	374	32.185818192119	62
2	390	34.61504349097	63
2	390	34.61504349097	64
2	390	34.61504349097	65
2	407	36.337139713429	66
2	407	36.337139713429	67
2	407	36.337139713429	68
2	425	38.247754272111	69
2	425	38.247754272111	70
2	425	38.247754272111	71
2	450	40.954236307111	72
2	450	40.954236307111	73
2	450	40.954236307111	74
2	464	42.458384220776	75
2	464	42.458384220776	76
2	464	42.458384220776	77
2	486	43.45770796886	78
2	486	43.45770796886	79
2	486	43.45770796886	80
2	499	44.651416742897	81
2	499	44.651416742897	82
2	499	44.651416742897	83
2	518	45.68101710144	84
2	518	45.68101710144	85
2	518	45.68101710144	86
2	535	46.884151036273	87
2	535	46.884151036273	88
2	535	46.884151036273	89
2	554	47.891961302097	90
2	554	47.891961302097	91
2	554	47.891961302097	92
2	571	49.056430519521	93
2	571	49.056430519521	94
2	571	49.056430519521	95
2	589	50.567757105277	96
2	589	50.567757105277	97
2	589	50.567757105277	98
2	607	51.58818999413	99
2	607	51.58818999413	100
2	607	51.58818999413	101
2	625	53.459712446519	102
2	625	53.459712446519	103
2	625	53.459712446519	104
2	643	54.59327716584	105
2	643	54.59327716584	106
2	643	54.59327716584	107
2	666	56.27881534733	108
2	666	56.27881534733	109
2	666	56.27881534733	110
2	683	57.979716774204	111
2	683	57.979716774204	112
2	683	57.979716774204	113
2	697	59.351164715303	114
2	697	59.351164715303	115
2	697	59.351164715303	116
2	716	61.090297038449	117
2	716	61.090297038449	118
2	716	61.090297038449	119
2	733	62.773997944356	120
2	733	62.773997944356	121
2	733	62.773997944356	122
2	755	64.188406061093	123
2	755	64.188406061093	124
2	755	64.188406061093	125
2	770	65.730616246349	126
2	770	65.730616246349	127
2	770	65.730616246349	128
2	788	67.003395202034	129
2	788	67.003395202034	130
2	788	67.003395202034	131
2	809	68.741524162789	132
2	809	68.741524162789	133
2	809	68.741524162789	134
2	828	69.974353089744	135
2	828	69.974353089744	136
2	828	69.974353089744	137
2	841	71.416243347538	138
2	841	71.416243347538	139
2	841	71.416243347538	140
2	859	73.25944415973	141
2	859	73.25944415973	142
2	859	73.25944415973	143
2	881	75.245495754125	144
2	881	75.245495754125	145
2	881	75.245495754125	146
2	895	76.971898843995	147
2	895	76.971898843995	148
2	895	76.971898843995	149
2	913	78.74325288436	150
2	913	78.74325288436	151
2	913	78.74325288436	152
2	939	80.636484042431	153
2	939	80.636484042431	154
2	939	80.636484042431	155
2	949	82.434205252345	156
2	949	82.434205252345	157
2	949	82.434205252345	158
2	967	84.382270087467	159
2	967	84.382270087467	160
2	967	84.382270087467	161
2	985	86.262466069198	162
2	985	86.262466069198	163
2	985	86.262466069198	164
2	1004	88.066116836255	165
2	1004	88.066116836255	166
2	1004	88.066116836255	167
2	1021	89.707921141103	168
2	1021	89.707921141103	169
2	1021	89.707921141103	170
2	1039	91.167015717296	171
2	1039	91.167015717296	172
2	1039	91.167015717296	173
2	1061	95.246907102847	174
2	1061	95.246907102847	175
2	1061	95.246907102847	176
2	1080	96.303082477586	177
2	1080	96.303082477586	178
2	1080	96.303082477586	179
2	1097	97.35486083544	180
2	1097	97.35486083544	181
2	1097	97.35486083544	182
2	1116	98.475404197914	183
2	1116	98.475404197914	184
2	1116	98.475404197914	185
2	1137	99.63674722018	186
2	1137	99.63674722018	187
2	1137	99.63674722018	188
2	1151	101.584471576588	189
2	1151	101.584471576588	190
2	1151	101.584471576588	191
2	1169	103.206186348451	192
2	1169	103.206186348451	193
2	1169	103.206186348451	194
2	1187	104.447651224602	195
2	1187	104.447651224602	196
2	1187	104.447651224602	197
2	1206	106.434556890963	198
2	1206	106.434556890963	199
2	1206	106.434556890963	200
2	1223	108.3607029339	201
2	1223	108.3607029339	202
2	1223	108.3607029339	203
2	1246	109.836341101897	204
2	1246	109.836341101897	205
2	1246	109.836341101897	206
2	1259	111.786368480206	207
2	1259	111.786368480206	208
2	1259	111.786368480206	209
2	1285	113.607888499136	210
2	1285	113.607888499136	211
2	1285	113.607888499136	212
2	1296	115.363897106336	213
2	1296	115.363897106336	214
2	1296	115.363897106336	215
2	1313	116.946991182453	216
2	1313	116.946991182453	217
2	1313	116.946991182453	218
2	1331	118.733829855203	219
2	1331	118.733829855203	220
2	1331	118.733829855203	221
2	1357	120.030445653954	222
2	1357	120.030445653954	223
2	1357	120.030445653954	224
2	1367	121.70264119988	225
2	1367	121.70264119988	226
2	1367	121.70264119988	227
2	1387	124.579854814578	228
2	1387	124.579854814578	229
2	1387	124.579854814578	230
2	1405	126.284237883464	231
2	1405	126.284237883464	232
2	1405	126.284237883464	233
2	1423	127.487142531867	234
2	1423	127.487142531867	235
2	1423	127.487142531867	236
2	1445	128.884745766089	237
2	1445	128.884745766089	238
2	1445	128.884745766089	239
2	1465	131.45327539747	240
2	1465	131.45327539747	241
2	1465	131.45327539747	242
2	1483	133.143783518048	243
2	1483	133.143783518048	244
2	1483	133.143783518048	245
2	1501	134.964966981391	246
2	1501	134.964966981391	247
2	1501	134.964966981391	248
2	1519	136.062531674127	249
2	1519	136.062531674127	250
2	1519	136.062531674127	251
2	1533	137.282743096542	252
2	1533	137.282743096542	253
2	1533	137.282743096542	254
2	1552	138.840272228001	255
2	1552	138.840272228001	256
2	1552	138.840272228001	257
2	1569	140.133404592129	258
2	1569	140.133404592129	259
2	1569	140.133404592129	260
2	1587	141.234054622431	261
2	1587	141.234054622431	262
2	1587	141.234054622431	263
2	1609	142.269387897609	264
2	1609	142.269387897609	265
2	1609	142.269387897609	266
2	1628	143.587048062052	267
2	1628	143.587048062052	268
2	1628	143.587048062052	269
2	1641	144.953559931379	270
2	1641	144.953559931379	271
2	1641	144.953559931379	272
2	1662	148.163858087113	273
2	1662	148.163858087113	274
2	1662	148.163858087113	275
2	1679	149.418230770366	276
2	1679	149.418230770366	277
2	1679	149.418230770366	278
2	1697	151.373753999614	279
2	1697	151.373753999614	280
2	1697	151.373753999614	281
2	1719	152.938057589043	282
2	1719	152.938057589043	283
2	1719	152.938057589043	284
2	1737	153.908913667141	285
2	1737	153.908913667141	286
2	1737	153.908913667141	287
2	1748	154.982447765721	288
2	1748	154.982447765721	289
2	1748	154.982447765721	290
2	1761	156.059747061567	291
2	1761	156.059747061567	292
2	1761	156.059747061567	293
2	1781	159.220822400415	294
2	1781	159.220822400415	295
2	1781	159.220822400415	296
2	1799	160.336339536542	297
2	1799	160.336339536542	298
2	1799	160.336339536542	299
2	1817	161.974093810999	300
2	1817	161.974093810999	301
2	1817	161.974093810999	302
2	1835	163.81547507497	303
2	1835	163.81547507497	304
2	1835	163.81547507497	305
2	1853	165.447909786971	306
2	1853	165.447909786971	307
2	1853	165.447909786971	308
2	1871	166.513881028946	309
2	1871	166.513881028946	310
2	1871	166.513881028946	311
2	1893	168.420982665308	312
2	1893	168.420982665308	313
2	1893	168.420982665308	314
2	1907	170.234158265162	315
2	1907	170.234158265162	316
2	1907	170.234158265162	317
2	1929	172.202083412396	318
2	1929	172.202083412396	319
2	1929	172.202083412396	320
2	1943	173.487650701669	321
2	1943	173.487650701669	322
2	1943	173.487650701669	323
2	1961	174.815994308952	324
2	1961	174.815994308952	325
2	1961	174.815994308952	326
2	1981	177.914881063268	327
2	1981	177.914881063268	328
2	1981	177.914881063268	329
2	2007	179.383017625207	330
2	2007	179.383017625207	331
2	2007	179.383017625207	332
2	2019	182.390189506753	333
2	2019	182.390189506753	334
2	2019	182.390189506753	335
2	2038	184.343695099095	336
2	2038	184.343695099095	337
2	2038	184.343695099095	338
2	2061	187.282679392472	339
2	2061	187.282679392472	340
2	2061	187.282679392472	341
2	2072	188.691342714731	342
2	2072	188.691342714731	343
2	2072	188.691342714731	344
2	2089	189.757906864674	345
2	2089	189.757906864674	346
2	2089	189.757906864674	347
2	2112	191.129420990851	348
2	2112	191.129420990851	349
2	2112	191.129420990851	350
2	2129	192.955615493035	351
2	2129	192.955615493035	352
2	2129	192.955615493035	353
2	2148	194.259295714595	354
2	2148	194.259295714595	355
2	2148	194.259295714595	356
2	2166	195.532541929301	357
2	2166	195.532541929301	358
2	2166	195.532541929301	359
2	2179	196.575680172145	360
2	2179	196.575680172145	361
2	2179	196.575680172145	362
2	2199	200.023423945801	363
2	2199	200.023423945801	364
2	2199	200.023423945801	365
2	2217	201.341090524814	366
2	2217	201.341090524814	367
2	2217	201.341090524814	368
2	2239	203.00441001382	369
2	2239	203.00441001382	370
2	2239	203.00441001382	371
2	2249	204.905027865396	372
2	2249	204.905027865396	373
2	2249	204.905027865396	374
2	2267	206.878396272551	375
2	2267	206.878396272551	376
2	2267	206.878396272551	377
2	2287	210.07234985774	378
2	2287	210.07234985774	379
2	2287	210.07234985774	380
2	2305	211.529579267698	381
2	2305	211.529579267698	382
2	2305	211.529579267698	383
2	2333	214.889455468557	384
2	2333	214.889455468557	385
2	2333	214.889455468557	386
2	2351	216.286954136999	387
2	2351	216.286954136999	388
2	2351	216.286954136999	389
2	2366	217.579145618298	390
2	2366	217.579145618298	391
2	2366	217.579145618298	392
2	2387	219.377155496182	393
2	2387	219.377155496182	394
2	2387	219.377155496182	395
2	2401	221.185531948481	396
2	2401	221.185531948481	397
2	2401	221.185531948481	398
2	2419	222.247863269049	399
2	2419	222.247863269049	400
2	2419	222.247863269049	401
2	2437	224.087993958843	402
2	2437	224.087993958843	403
2	2437	224.087993958843	404
2	2455	225.561589326915	405
2	2455	225.561589326915	406
2	2455	225.561589326915	407
2	2473	227.140692234489	408
2	2473	227.140692234489	409
2	2473	227.140692234489	410
2	2491	228.641432626722	411
2	2491	228.641432626722	412
2	2491	228.641432626722	413
2	2509	230.354334846773	414
2	2509	230.354334846773	415
2	2509	230.354334846773	416
2	2527	232.334846520072	417
2	2527	232.334846520072	418
2	2527	232.334846520072	419
2	2546	233.512741652343	420
2	2546	233.512741652343	421
2	2546	233.512741652343	422
2	2564	235.499168217316	423
2	2564	235.499168217316	424
2	2564	235.499168217316	425
2	2589	236.55031290429	426
2	2589	236.55031290429	427
2	2589	236.55031290429	428
2	2604	237.593210979655	429
2	2604	237.593210979655	430
2	2604	237.593210979655	431
2	2618	238.954013627926	432
2	2618	238.954013627926	433
2	2618	238.954013627926	434
3	8	0.139799085561	0
3	8	0.139799085561	1
3	8	0.139799085561	2
3	25	2.112464423829	3
3	25	2.112464423829	4
3	25	2.112464423829	5
3	47	4.002300504418	6
3	47	4.002300504418	7
3	47	4.002300504418	8
3	61	5.893503660692	9
3	61	5.893503660692	10
3	61	5.893503660692	11
3	87	7.203799426335	12
3	87	7.203799426335	13
3	87	7.203799426335	14
3	98	8.952626934659	15
3	98	8.952626934659	16
3	98	8.952626934659	17
3	117	12.020266438176	18
3	117	12.020266438176	19
3	117	12.020266438176	20
3	135	13.575459665957	21
3	135	13.575459665957	22
3	135	13.575459665957	23
3	157	15.367220906392	24
3	157	15.367220906392	25
3	157	15.367220906392	26
3	175	16.747860779237	27
3	175	16.747860779237	28
3	175	16.747860779237	29
3	190	18.07440503242	30
3	190	18.07440503242	31
3	190	18.07440503242	32
3	207	19.133348489068	33
3	207	19.133348489068	34
3	207	19.133348489068	35
3	229	20.740837651866	36
3	229	20.740837651866	37
3	229	20.740837651866	38
3	243	21.779709515642	39
3	243	21.779709515642	40
3	243	21.779709515642	41
3	266	23.32575030379	42
3	266	23.32575030379	43
3	266	23.32575030379	44
3	280	24.59404943283	45
3	280	24.59404943283	46
3	280	24.59404943283	47
3	301	26.218631116678	48
3	301	26.218631116678	49
3	301	26.218631116678	50
3	315	27.980110631138	51
3	315	27.980110631138	52
3	315	27.980110631138	53
3	333	29.136747566127	54
3	333	29.136747566127	55
3	333	29.136747566127	56
3	352	31.035585616503	57
3	352	31.035585616503	58
3	352	31.035585616503	59
3	369	32.16561664395	60
3	369	32.16561664395	61
3	369	32.16561664395	62
3	389	34.612004793775	63
3	389	34.612004793775	64
3	389	34.612004793775	65
3	411	36.353794852049	66
3	411	36.353794852049	67
3	411	36.353794852049	68
3	433	38.279697323394	69
3	433	38.279697323394	70
3	433	38.279697323394	71
3	445	40.939059850152	72
3	445	40.939059850152	73
3	445	40.939059850152	74
3	463	42.450263642475	75
3	463	42.450263642475	76
3	463	42.450263642475	77
3	481	43.439156039313	78
3	481	43.439156039313	79
3	481	43.439156039313	80
3	507	44.67649674036	81
3	507	44.67649674036	82
3	507	44.67649674036	83
3	517	45.675540849609	84
3	517	45.675540849609	85
3	517	45.675540849609	86
3	536	46.885330977658	87
3	536	46.885330977658	88
3	536	46.885330977658	89
3	553	47.888611398133	90
3	553	47.888611398133	91
3	553	47.888611398133	92
3	575	49.068231979963	93
3	575	49.068231979963	94
3	575	49.068231979963	95
3	590	50.571246612887	96
3	590	50.571246612887	97
3	590	50.571246612887	98
3	608	51.594862838589	99
3	608	51.594862838589	100
3	608	51.594862838589	101
3	626	53.461509273333	102
3	626	53.461509273333	103
3	626	53.461509273333	104
3	644	54.600204775846	105
3	644	54.600204775846	106
3	644	54.600204775846	107
3	661	56.266452327605	108
3	661	56.266452327605	109
3	661	56.266452327605	110
3	679	57.952206356581	111
3	679	57.952206356581	112
3	679	57.952206356581	113
3	701	59.366888046568	114
3	701	59.366888046568	115
3	701	59.366888046568	116
3	715	61.080938545958	117
3	715	61.080938545958	118
3	715	61.080938545958	119
3	741	62.817115834078	120
3	741	62.817115834078	121
3	741	62.817115834078	122
3	751	64.173141555953	123
3	751	64.173141555953	124
3	751	64.173141555953	125
3	769	65.730422424626	126
3	769	65.730422424626	127
3	769	65.730422424626	128
3	787	66.994675092242	129
3	787	66.994675092242	130
3	787	66.994675092242	131
3	805	68.729495096113	132
3	805	68.729495096113	133
3	805	68.729495096113	134
3	823	69.949819710701	135
3	823	69.949819710701	136
3	823	69.949819710701	137
3	845	71.426428375178	138
3	845	71.426428375178	139
3	845	71.426428375178	140
3	860	73.267163197011	141
3	860	73.267163197011	142
3	860	73.267163197011	143
3	877	75.235391570711	144
3	877	75.235391570711	145
3	877	75.235391570711	146
3	903	76.995009139853	147
3	903	76.995009139853	148
3	903	76.995009139853	149
3	918	78.762131284989	150
3	918	78.762131284989	151
3	918	78.762131284989	152
3	931	80.599794713468	153
3	931	80.599794713468	154
3	931	80.599794713468	155
3	953	82.461841093227	156
3	953	82.461841093227	157
3	953	82.461841093227	158
3	968	84.387958883867	159
3	968	84.387958883867	160
3	968	84.387958883867	161
3	986	86.265183441682	162
3	986	86.265183441682	163
3	986	86.265183441682	164
3	1003	88.064921338147	165
3	1003	88.064921338147	166
3	1003	88.064921338147	167
3	1022	89.712167178826	168
3	1022	89.712167178826	169
3	1022	89.712167178826	170
3	1043	91.207343577244	171
3	1043	91.207343577244	172
3	1043	91.207343577244	173
3	1069	95.282097871832	174
3	1069	95.282097871832	175
3	1069	95.282097871832	176
3	1079	96.300662509547	177
3	1079	96.300662509547	178
3	1079	96.300662509547	179
3	1105	97.393967462261	180
3	1105	97.393967462261	181
3	1105	97.393967462261	182
3	1115	98.471904864455	183
3	1115	98.471904864455	184
3	1115	98.471904864455	185
3	1133	99.618085693541	186
3	1133	99.618085693541	187
3	1133	99.618085693541	188
3	1152	101.58990721909	189
3	1152	101.58990721909	190
3	1152	101.58990721909	191
3	1170	103.215468102277	192
3	1170	103.215468102277	193
3	1170	103.215468102277	194
3	1188	104.447744348966	195
3	1188	104.447744348966	196
3	1188	104.447744348966	197
3	1205	106.432760684427	198
3	1205	106.432760684427	199
3	1205	106.432760684427	200
3	1227	108.37415834055	201
3	1227	108.37415834055	202
3	1227	108.37415834055	203
3	1241	109.824860006308	204
3	1241	109.824860006308	205
3	1241	109.824860006308	206
3	1260	111.791957408631	207
3	1260	111.791957408631	208
3	1260	111.791957408631	209
3	1277	113.582430754255	210
3	1277	113.582430754255	211
3	1277	113.582430754255	212
3	1295	115.357598407782	213
3	1295	115.357598407782	214
3	1295	115.357598407782	215
3	1314	116.955028153086	216
3	1314	116.955028153086	217
3	1314	116.955028153086	218
3	1332	118.73523326014	219
3	1332	118.73523326014	220
3	1332	118.73523326014	221
3	1349	119.999384069253	222
3	1349	119.999384069253	223
3	1349	119.999384069253	224
3	1372	121.727351992397	225
3	1372	121.727351992397	226
3	1372	121.727351992397	227
3	1388	124.581303127695	228
3	1388	124.581303127695	229
3	1388	124.581303127695	230
3	1406	126.289836051729	231
3	1406	126.289836051729	232
3	1406	126.289836051729	233
3	1424	127.489659539133	234
3	1424	127.489659539133	235
3	1424	127.489659539133	236
3	1441	128.866416098486	237
3	1441	128.866416098486	238
3	1441	128.866416098486	239
3	1461	131.440376697609	240
3	1461	131.440376697609	241
3	1461	131.440376697609	242
3	1479	133.098450539428	243
3	1479	133.098450539428	244
3	1479	133.098450539428	245
3	1497	134.951690932047	246
3	1497	134.951690932047	247
3	1497	134.951690932047	248
3	1515	136.050429996898	249
3	1515	136.050429996898	250
3	1515	136.050429996898	251
3	1534	137.28701642901	252
3	1534	137.28701642901	253
3	1534	137.28701642901	254
3	1551	138.838370804279	255
3	1551	138.838370804279	256
3	1551	138.838370804279	257
3	1570	140.138817527142	258
3	1570	140.138817527142	259
3	1570	140.138817527142	260
3	1595	141.2605717119	261
3	1595	141.2605717119	262
3	1595	141.2605717119	263
3	1605	142.255343117753	264
3	1605	142.255343117753	265
3	1605	142.255343117753	266
3	1623	143.564554772352	267
3	1623	143.564554772352	268
3	1623	143.564554772352	269
3	1642	144.962301200605	270
3	1642	144.962301200605	271
3	1642	144.962301200605	272
3	1661	148.162916485999	273
3	1661	148.162916485999	274
3	1661	148.162916485999	275
3	1680	149.423346636957	276
3	1680	149.423346636957	277
3	1680	149.423346636957	278
3	1698	151.377356378508	279
3	1698	151.377356378508	280
3	1698	151.377356378508	281
3	1715	152.919718264033	282
3	1715	152.919718264033	283
3	1715	152.919718264033	284
3	1733	153.891710151994	285
3	1733	153.891710151994	286
3	1733	153.891710151994	287
3	1747	154.973812253341	288
3	1747	154.973812253341	289
3	1747	154.973812253341	290
3	1769	156.111982440517	291
3	1769	156.111982440517	292
3	1769	156.111982440517	293
3	1785	159.235642635598	294
3	1785	159.235642635598	295
3	1785	159.235642635598	296
3	1800	160.337906607584	297
3	1800	160.337906607584	298
3	1800	160.337906607584	299
3	1818	161.981049211126	300
3	1818	161.981049211126	301
3	1818	161.981049211126	302
3	1836	163.823673090623	303
3	1836	163.823673090623	304
3	1836	163.823673090623	305
3	1857	165.462125487867	306
3	1857	165.462125487867	307
3	1857	165.462125487867	308
3	1879	166.54651690218	309
3	1879	166.54651690218	310
3	1879	166.54651690218	311
3	1889	168.408510005155	312
3	1889	168.408510005155	313
3	1889	168.408510005155	314
3	1908	170.235646988599	315
3	1908	170.235646988599	316
3	1908	170.235646988599	317
3	1925	172.189068642507	318
3	1925	172.189068642507	319
3	1925	172.189068642507	320
3	1948	173.504296103112	321
3	1948	173.504296103112	322
3	1948	173.504296103112	323
3	1962	174.81654680403	324
3	1962	174.81654680403	325
3	1962	174.81654680403	326
3	1985	177.928283233345	327
3	1985	177.928283233345	328
3	1985	177.928283233345	329
3	1999	179.326579119775	330
3	1999	179.326579119775	331
3	1999	179.326579119775	332
3	2020	182.390929245443	333
3	2020	182.390929245443	334
3	2020	182.390929245443	335
3	2037	184.334940756494	336
3	2037	184.334940756494	337
3	2037	184.334940756494	338
3	2057	187.269676698544	339
3	2057	187.269676698544	340
3	2057	187.269676698544	341
3	2071	188.685786526537	342
3	2071	188.685786526537	343
3	2071	188.685786526537	344
3	2094	189.777194274734	345
3	2094	189.777194274734	346
3	2094	189.777194274734	347
3	2107	191.109657189827	348
3	2107	191.109657189827	349
3	2107	191.109657189827	350
3	2125	192.938534127199	351
3	2125	192.938534127199	352
3	2125	192.938534127199	353
3	2143	194.227944428173	354
3	2143	194.227944428173	355
3	2143	194.227944428173	356
3	2161	195.514336132498	357
3	2161	195.514336132498	358
3	2161	195.514336132498	359
3	2180	196.585097604305	360
3	2180	196.585097604305	361
3	2180	196.585097604305	362
3	2200	200.028935408966	363
3	2200	200.028935408966	364
3	2200	200.028935408966	365
3	2222	201.354961665633	366
3	2222	201.354961665633	367
3	2222	201.354961665633	368
3	2235	202.991117818865	369
3	2235	202.991117818865	370
3	2235	202.991117818865	371
3	2254	204.922102749126	372
3	2254	204.922102749126	373
3	2254	204.922102749126	374
3	2271	206.889142939289	375
3	2271	206.889142939289	376
3	2271	206.889142939289	377
3	2288	210.077556257622	378
3	2288	210.077556257622	379
3	2288	210.077556257622	380
3	2310	211.550361360249	381
3	2310	211.550361360249	382
3	2310	211.550361360249	383
3	2329	214.874420752548	384
3	2329	214.874420752548	385
3	2329	214.874420752548	386
3	2347	216.274141150264	387
3	2347	216.274141150264	388
3	2347	216.274141150264	389
3	2365	217.573845567725	390
3	2365	217.573845567725	391
3	2365	217.573845567725	392
3	2383	219.356857003936	393
3	2383	219.356857003936	394
3	2383	219.356857003936	395
3	2409	221.22683636555	396
3	2409	221.22683636555	397
3	2409	221.22683636555	398
3	2427	222.289748461472	399
3	2427	222.289748461472	400
3	2427	222.289748461472	401
3	2442	224.11296401591	402
3	2442	224.11296401591	403
3	2442	224.11296401591	404
3	2463	225.585533524818	405
3	2463	225.585533524818	406
3	2463	225.585533524818	407
3	2478	227.153957988771	408
3	2478	227.153957988771	409
3	2478	227.153957988771	410
3	2492	228.647123829951	411
3	2492	228.647123829951	412
3	2492	228.647123829951	413
3	2514	230.369167980246	414
3	2514	230.369167980246	415
3	2514	230.369167980246	416
3	2528	232.340992717466	417
3	2528	232.340992717466	418
3	2528	232.340992717466	419
3	2545	233.506720584041	420
3	2545	233.506720584041	421
3	2545	233.506720584041	422
3	2563	235.49755378729	423
3	2563	235.49755378729	424
3	2563	235.49755378729	425
3	2581	236.52516141367	426
3	2581	236.52516141367	427
3	2581	236.52516141367	428
3	2599	237.573939817446	429
3	2599	237.573939817446	430
3	2599	237.573939817446	431
3	2617	238.947342288403	432
3	2617	238.947342288403	433
3	2617	238.947342288403	434
4	15	0.149847200394	0
4	15	0.149847200394	1
4	15	0.149847200394	2
4	33	2.147334384836	3
4	33	2.147334384836	4
4	33	2.147334384836	5
4	48	4.002464788999	6
4	48	4.002464788999	7
4	48	4.002464788999	8
4	69	5.908810337153	9
4	69	5.908810337153	10
4	69	5.908810337153	11
4	83	7.193300797855	12
4	83	7.193300797855	13
4	83	7.193300797855	14
4	105	8.965004788261	15
4	105	8.965004788261	16
4	105	8.965004788261	17
4	125	12.037890306705	18
4	125	12.037890306705	19
4	125	12.037890306705	20
4	140	13.606926209226	21
4	140	13.606926209226	22
4	140	13.606926209226	23
4	158	15.368197750865	24
4	158	15.368197750865	25
4	158	15.368197750865	26
4	179	16.76758134357	27
4	179	16.76758134357	28
4	179	16.76758134357	29
4	197	18.09039119927	30
4	197	18.09039119927	31
4	197	18.09039119927	32
4	211	19.149648197787	33
4	211	19.149648197787	34
4	211	19.149648197787	35
4	230	20.749885336047	36
4	230	20.749885336047	37
4	230	20.749885336047	38
4	251	21.790786873791	39
4	251	21.790786873791	40
4	251	21.790786873791	41
4	265	23.317705290158	42
4	265	23.317705290158	43
4	265	23.317705290158	44
4	284	24.599043563753	45
4	284	24.599043563753	46
4	284	24.599043563753	47
4	305	26.252080724321	48
4	305	26.252080724321	49
4	305	26.252080724321	50
4	319	28.00361818752	51
4	319	28.00361818752	52
4	319	28.00361818752	53
4	338	29.156069975237	54
4	338	29.156069975237	55
4	338	29.156069975237	56
4	356	31.043657357178	57
4	356	31.043657357178	58
4	356	31.043657357178	59
4	373	32.177766342928	60
4	373	32.177766342928	61
4	373	32.177766342928	62
4	397	34.639163116465	63
4	397	34.639163116465	64
4	397	34.639163116465	65
4	412	36.356410967825	66
4	412	36.356410967825	67
4	412	36.356410967825	68
4	429	38.269569381757	69
4	429	38.269569381757	70
4	429	38.269569381757	71
4	449	40.952365422519	72
4	449	40.952365422519	73
4	449	40.952365422519	74
4	468	42.461616413439	75
4	468	42.461616413439	76
4	468	42.461616413439	77
4	485	43.457006410685	78
4	485	43.457006410685	79
4	485	43.457006410685	80
4	503	44.666142096279	81
4	503	44.666142096279	82
4	503	44.666142096279	83
4	522	45.686317480527	84
4	522	45.686317480527	85
4	522	45.686317480527	86
4	543	46.899149204971	87
4	543	46.899149204971	88
4	543	46.899149204971	89
4	558	47.901094297746	90
4	558	47.901094297746	91
4	558	47.901094297746	92
4	576	49.07492826091	93
4	576	49.07492826091	94
4	576	49.07492826091	95
4	594	50.578586857868	96
4	594	50.578586857868	97
4	594	50.578586857868	98
4	612	51.602423821625	99
4	612	51.602423821625	100
4	612	51.602423821625	101
4	633	53.476635605191	102
4	633	53.476635605191	103
4	633	53.476635605191	104
4	651	54.610530915692	105
4	651	54.610530915692	106
4	651	54.610530915692	107
4	665	56.27694738193	108
4	665	56.27694738193	109
4	665	56.27694738193	110
4	687	57.992124952514	111
4	687	57.992124952514	112
4	687	57.992124952514	113
4	702	59.374322276533	114
4	702	59.374322276533	115
4	702	59.374322276533	116
4	720	61.09684624817	117
4	720	61.09684624817	118
4	720	61.09684624817	119
4	737	62.785453150155	120
4	737	62.785453150155	121
4	737	62.785453150155	122
4	756	64.189682030828	123
4	756	64.189682030828	124
4	756	64.189682030828	125
4	777	65.765822421935	126
4	777	65.765822421935	127
4	777	65.765822421935	128
4	792	67.00648659036	129
4	792	67.00648659036	130
4	792	67.00648659036	131
4	810	68.744148643414	132
4	810	68.744148643414	133
4	810	68.744148643414	134
4	827	69.971753353303	135
4	827	69.971753353303	136
4	827	69.971753353303	137
4	846	71.4269339012	138
4	846	71.4269339012	139
4	846	71.4269339012	140
4	864	73.275946425748	141
4	864	73.275946425748	142
4	864	73.275946425748	143
4	882	75.255028370663	144
4	882	75.255028370663	145
4	882	75.255028370663	146
4	899	76.983976858324	147
4	899	76.983976858324	148
4	899	76.983976858324	149
4	917	78.755157593099	150
4	917	78.755157593099	151
4	917	78.755157593099	152
4	935	80.625872166577	153
4	935	80.625872166577	154
4	935	80.625872166577	155
4	954	82.466371065073	156
4	954	82.466371065073	157
4	954	82.466371065073	158
4	972	84.395696354815	159
4	972	84.395696354815	160
4	972	84.395696354815	161
4	993	86.302808776799	162
4	993	86.302808776799	163
4	993	86.302808776799	164
4	1011	88.094333663643	165
4	1011	88.094333663643	166
4	1011	88.094333663643	167
4	1026	89.720519393755	168
4	1026	89.720519393755	169
4	1026	89.720519393755	170
4	1044	91.214308178177	171
4	1044	91.214308178177	172
4	1044	91.214308178177	173
4	1065	95.271494672773	174
4	1065	95.271494672773	175
4	1065	95.271494672773	176
4	1087	96.319464079673	177
4	1087	96.319464079673	178
4	1087	96.319464079673	179
4	1101	97.372282027896	180
4	1101	97.372282027896	181
4	1101	97.372282027896	182
4	1123	98.486959914325	183
4	1123	98.486959914325	184
4	1123	98.486959914325	185
4	1138	99.644572629534	186
4	1138	99.644572629534	187
4	1138	99.644572629534	188
4	1159	101.605610758357	189
4	1159	101.605610758357	190
4	1159	101.605610758357	191
4	1174	103.220548708619	192
4	1174	103.220548708619	193
4	1174	103.220548708619	194
4	1195	104.459188779437	195
4	1195	104.459188779437	196
4	1195	104.459188779437	197
4	1213	106.451968802795	198
4	1213	106.451968802795	199
4	1213	106.451968802795	200
4	1231	108.421473517963	201
4	1231	108.421473517963	202
4	1231	108.421473517963	203
4	1245	109.835346279596	204
4	1245	109.835346279596	205
4	1245	109.835346279596	206
4	1267	111.825428939773	207
4	1267	111.825428939773	208
4	1267	111.825428939773	209
4	1281	113.593265697033	210
4	1281	113.593265697033	211
4	1281	113.593265697033	212
4	1303	115.376923670294	213
4	1303	115.376923670294	214
4	1303	115.376923670294	215
4	1321	116.972533881804	216
4	1321	116.972533881804	217
4	1321	116.972533881804	218
4	1339	118.763632448036	219
4	1339	118.763632448036	220
4	1339	118.763632448036	221
4	1353	120.014755835471	222
4	1353	120.014755835471	223
4	1353	120.014755835471	224
4	1371	121.726529147516	225
4	1371	121.726529147516	226
4	1371	121.726529147516	227
4	1395	124.593451562278	228
4	1395	124.593451562278	229
4	1395	124.593451562278	230
4	1413	126.300109859782	231
4	1413	126.300109859782	232
4	1413	126.300109859782	233
4	1431	127.518127590873	234
4	1431	127.518127590873	235
4	1431	127.518127590873	236
4	1449	128.896824594467	237
4	1449	128.896824594467	238
4	1449	128.896824594467	239
4	1469	131.469211458362	240
4	1469	131.469211458362	241
4	1469	131.469211458362	242
4	1487	133.173442115871	243
4	1487	133.173442115871	244
4	1487	133.173442115871	245
4	1502	134.969292751541	246
4	1502	134.969292751541	247
4	1502	134.969292751541	248
4	1520	136.067476973621	249
4	1520	136.067476973621	250
4	1520	136.067476973621	251
4	1541	137.31271000081	252
4	1541	137.31271000081	253
4	1541	137.31271000081	254
4	1559	138.879333325252	255
4	1559	138.879333325252	256
4	1559	138.879333325252	257
4	1577	140.15306956306	258
4	1577	140.15306956306	259
4	1577	140.15306956306	260
4	1591	141.24755429442	261
4	1591	141.24755429442	262
4	1591	141.24755429442	263
4	1610	142.27356382712	264
4	1610	142.27356382712	265
4	1610	142.27356382712	266
4	1627	143.582354284731	267
4	1627	143.582354284731	268
4	1627	143.582354284731	269
4	1646	144.966138543599	270
4	1646	144.966138543599	271
4	1646	144.966138543599	272
4	1669	148.181056933666	273
4	1669	148.181056933666	274
4	1669	148.181056933666	275
4	1684	149.4312672645	276
4	1684	149.4312672645	277
4	1684	149.4312672645	278
4	1705	151.394889179212	279
4	1705	151.394889179212	280
4	1705	151.394889179212	281
4	1720	152.939910551709	282
4	1720	152.939910551709	283
4	1720	152.939910551709	284
4	1765	156.101312573017	285
4	1765	156.101312573017	286
4	1765	156.101312573017	287
4	1786	159.237167203476	288
4	1786	159.237167203476	289
4	1786	159.237167203476	290
4	1804	160.346784639655	291
4	1804	160.346784639655	292
4	1804	160.346784639655	293
4	1825	162.001017691876	294
4	1825	162.001017691876	295
4	1825	162.001017691876	296
4	1840	163.827109496795	297
4	1840	163.827109496795	298
4	1840	163.827109496795	299
4	1861	165.472872853007	300
4	1861	165.472872853007	301
4	1861	165.472872853007	302
4	1875	166.530811148274	303
4	1875	166.530811148274	304
4	1875	166.530811148274	305
4	1894	168.427890120367	306
4	1894	168.427890120367	307
4	1894	168.427890120367	308
4	1915	170.254707739624	309
4	1915	170.254707739624	310
4	1915	170.254707739624	311
4	1933	172.215648816874	312
4	1933	172.215648816874	313
4	1933	172.215648816874	314
4	1947	173.500575393425	315
4	1947	173.500575393425	316
4	1947	173.500575393425	317
4	1969	174.828697560799	318
4	1969	174.828697560799	319
4	1969	174.828697560799	320
4	1986	177.929027384119	321
4	1986	177.929027384119	322
4	1986	177.929027384119	323
4	2003	179.358636185052	324
4	2003	179.358636185052	325
4	2003	179.358636185052	326
4	2027	182.414790594117	327
4	2027	182.414790594117	328
4	2027	182.414790594117	329
4	2045	184.357375028225	330
4	2045	184.357375028225	331
4	2045	184.357375028225	332
4	2079	188.729191708772	333
4	2079	188.729191708772	334
4	2079	188.729191708772	335
4	2093	189.772135948488	336
4	2093	189.772135948488	337
4	2093	189.772135948488	338
4	2111	191.129064518601	339
4	2111	191.129064518601	340
4	2111	191.129064518601	341
4	2130	192.960552999879	342
4	2130	192.960552999879	343
4	2130	192.960552999879	344
4	2147	194.25544451312	345
4	2147	194.25544451312	346
4	2147	194.25544451312	347
4	2165	195.528136477706	348
4	2165	195.528136477706	349
4	2165	195.528136477706	350
4	2184	196.589921747588	351
4	2184	196.589921747588	352
4	2184	196.589921747588	353
4	2204	200.033497404655	354
4	2204	200.033497404655	355
4	2204	200.033497404655	356
4	2221	201.352402492016	357
4	2221	201.352402492016	358
4	2221	201.352402492016	359
4	2253	204.92109191464	360
4	2253	204.92109191464	361
4	2253	204.92109191464	362
4	2275	206.923829638857	363
4	2275	206.923829638857	364
4	2275	206.923829638857	365
4	2295	210.093795749949	366
4	2295	210.093795749949	367
4	2295	210.093795749949	368
4	2309	211.544540265534	369
4	2309	211.544540265534	370
4	2309	211.544540265534	371
4	2334	214.895740999714	372
4	2334	214.895740999714	373
4	2334	214.895740999714	374
4	2355	216.300280655883	375
4	2355	216.300280655883	376
4	2355	216.300280655883	377
4	2370	217.584367916687	378
4	2370	217.584367916687	379
4	2370	217.584367916687	380
4	2388	219.380754492484	381
4	2388	219.380754492484	382
4	2388	219.380754492484	383
4	2405	221.204446054866	384
4	2405	221.204446054866	385
4	2405	221.204446054866	386
4	2423	222.258638280923	387
4	2423	222.258638280923	388
4	2423	222.258638280923	389
4	2441	224.104185117077	390
4	2441	224.104185117077	391
4	2441	224.104185117077	392
4	2459	225.573677646474	393
4	2459	225.573677646474	394
4	2459	225.573677646474	395
4	2477	227.15069988127	396
4	2477	227.15069988127	397
4	2477	227.15069988127	398
4	2499	228.658280972885	399
4	2499	228.658280972885	400
4	2499	228.658280972885	401
4	2513	230.367867009192	402
4	2513	230.367867009192	403
4	2513	230.367867009192	404
4	2535	232.355017451023	405
4	2535	232.355017451023	406
4	2535	232.355017451023	407
4	2550	233.518944663883	408
4	2550	233.518944663883	409
4	2550	233.518944663883	410
4	2571	235.509767176076	411
4	2571	235.509767176076	412
4	2571	235.509767176076	413
4	2585	236.539428854012	414
4	2585	236.539428854012	415
4	2585	236.539428854012	416
4	2603	237.588496617999	417
4	2603	237.588496617999	418
4	2603	237.588496617999	419
4	2622	238.958128641076	420
4	2622	238.958128641076	421
4	2622	238.958128641076	422
5	18	0.159847200394	0
5	36	2.157334384836	1
5	72	5.918810337153	2
5	86	7.203300797855	3
5	108	8.975004788261	4
5	146	13.616926209226	5
5	164	15.378197750865	6
5	182	16.77758134357	7
5	200	18.10039119927	8
5	215	19.159648197787	9
5	236	20.759885336047	10
5	254	21.800786873791	11
5	269	23.327705290158	12
5	290	24.609043563753	13
5	308	26.262080724321	14
5	323	28.01361818752	15
5	344	29.166069975237	16
5	362	31.053657357178	17
5	377	32.187766342928	18
5	400	34.649163116465	19
5	418	36.366410967825	20
5	432	38.279569381757	21
5	453	40.962365422519	22
5	474	42.471616413439	23
5	489	43.467006410685	24
5	528	45.696317480527	25
5	546	46.909149204971	26
5	564	47.911094297746	27
5	582	49.08492826091	28
5	600	50.588586857868	29
5	618	51.612423821625	30
5	636	53.486635605191	31
5	654	54.620530915692	32
5	669	56.28694738193	33
5	690	58.002124952514	34
5	708	59.384322276533	35
5	726	61.10684624817	36
5	740	62.795453150155	37
5	762	64.199682030828	38
5	780	65.775822421935	39
5	798	67.01648659036	40
5	831	69.981753353303	41
5	870	73.285946425748	42
5	888	75.265028370663	43
5	902	76.993976858324	44
5	921	78.765157593099	45
5	938	80.635872166577	46
5	960	82.476371065073	47
5	978	84.405696354815	48
5	996	86.312808776799	49
5	1014	88.104333663643	50
5	1032	89.730519393755	51
5	1068	95.281494672773	52
5	1104	97.382282027896	53
5	1144	99.654572629534	54
5	1162	101.615610758357	55
5	1180	103.230548708619	56
5	1198	104.469188779437	57
5	1216	106.461968802795	58
5	1234	108.431473517963	59
5	1249	109.845346279596	60
5	1284	113.603265697033	61
5	1306	115.386923670294	62
5	1324	116.982533881804	63
5	1342	118.773632448036	64
5	1356	120.024755835471	65
5	1375	121.736529147516	66
5	1398	124.603451562278	67
5	1416	126.310109859782	68
5	1434	127.528127590873	69
5	1452	128.906824594467	70
5	1472	131.479211458362	71
5	1490	133.183442115871	72
5	1508	134.979292751541	73
5	1526	136.077476973621	74
5	1544	137.32271000081	75
5	1562	138.889333325252	76
5	1580	140.16306956306	77
5	1594	141.25755429442	78
5	1616	142.28356382712	79
5	1631	143.592354284731	80
5	1652	144.976138543599	81
5	1672	148.191056933666	82
5	1690	149.4412672645	83
5	1708	151.404889179212	84
5	1726	152.949910551709	85
5	1768	156.111312573017	86
5	1792	159.247167203476	87
5	1810	160.356784639655	88
5	1828	162.011017691876	89
5	1846	163.837109496795	90
5	1878	166.540811148274	91
5	1900	168.437890120367	92
5	1918	170.264707739624	93
5	1936	172.225648816874	94
5	1951	173.510575393425	95
5	1972	174.838697560799	96
5	1992	177.939027384119	97
5	2006	179.368636185052	98
5	2030	182.424790594117	99
5	2048	184.367375028225	100
5	2082	188.739191708772	101
5	2097	189.782135948488	102
5	2136	192.970552999879	103
5	2169	195.538136477706	104
5	2190	196.599921747588	105
5	2210	200.043497404655	106
5	2257	204.93109191464	107
5	2278	206.933829638857	108
5	2298	210.103795749949	109
5	2313	211.554540265534	110
5	2340	214.905740999714	111
5	2358	216.310280655883	112
5	2376	217.594367916687	113
5	2394	219.390754492484	114
5	2408	221.214446054866	115
5	2426	222.268638280923	116
5	2445	224.114185117077	117
5	2462	225.583677646474	118
5	2481	227.16069988127	119
5	2502	228.668280972885	120
5	2517	230.377867009192	121
5	2538	232.365017451023	122
5	2574	235.519767176076	123
5	2588	236.549428854012	124
5	2607	237.598496617999	125
5	2628	238.968128641076	126

