version 2
run General-3-20230921-21:31:29-5391
attr configname General
attr datetime 20230921-21:31:29
attr experiment General
attr inifile omnetpp.ini
attr iterationvars ""
attr iterationvarsf ""
attr measurement ""
attr network Network1
attr processid 5391
attr repetition 3
attr replication #3
attr resultdir results
attr runnumber 3
attr seedset 3
param Network1.node[*].transmissionTime "uniform(1s, 2s)"
param Network1.node[*].delayTime "uniform(0.01s, 0.2s)"
param Network1.node[*].processingTime exponential(0.01s)
param Network1.node[*].lossProbability 0.1

vector 0 Network1.node[0] txVector ETV
vector 1 Network1.node[1] txVector ETV
vector 2 Network1.node[2] txVector ETV
vector 3 Network1.node[4] txVector ETV
vector 4 Network1.node[3] txVector ETV
vector 5 Network1.node[5] rxVector ETV
0	1	0.114651601831	0
0	19	1.185376482154	1
0	21	2.880200139316	2
0	39	4.02557028674	3
0	57	5.578342235251	4
0	75	7.29676426046	5
0	93	9.010330008179	6
0	111	10.881402058829	7
0	129	12.243742517498	8
0	147	13.765346854296	9
0	165	15.683376876707	10
0	183	16.769377592089	11
0	201	18.569981102901	12
0	219	19.803673112136	13
0	237	21.072480440908	14
0	239	22.340428195731	15
0	257	23.59763457377	16
0	259	25.089450121927	17
0	261	26.219108505943	18
0	279	28.079161968851	19
0	297	29.77591195663	20
0	315	31.181810940686	21
0	333	33.17962334056	22
0	335	34.205151213404	23
0	353	36.133650059883	24
0	371	37.927412331408	25
0	373	39.066588844709	26
0	375	40.088684659056	27
0	393	41.311060978636	28
0	395	43.211831783714	29
0	413	44.572915558774	30
0	431	46.189620845556	31
0	437	47.220550041949	32
0	439	48.495187511505	33
0	457	50.437101875036	34
0	475	52.180931286258	35
0	485	53.712394416635	36
0	503	55.038658422022	37
0	521	56.57225335699	38
0	539	57.677994855982	39
0	557	59.494264104706	40
0	575	60.92578232924	41
0	593	62.898867756897	42
0	611	64.690058505698	43
0	629	66.011523208418	44
0	631	67.733965410921	45
0	649	69.361990896124	46
0	667	71.032457003207	47
0	685	72.525308325025	48
0	703	74.063913650182	49
0	721	75.392150003067	50
0	739	77.280922880699	51
0	741	78.450024520117	52
0	759	79.752884074184	53
0	777	81.196441686782	54
0	795	82.89931929491	55
0	813	84.370387096726	56
0	831	85.921528071002	57
0	849	87.518149876338	58
0	867	88.557944029406	59
0	885	90.517509329202	60
0	903	91.688120102812	61
0	921	92.984715522802	62
0	939	94.296264859219	63
0	957	95.898145611701	64
0	975	97.415265356028	65
0	977	98.739099448384	66
0	995	100.214056293783	67
0	997	101.619411923527	68
0	1015	103.453097442235	69
0	1017	105.192457362381	70
0	1035	106.295712927892	71
0	1037	108.005306521035	72
0	1055	109.675328855706	73
0	1073	111.427134746756	74
0	1091	113.299165337883	75
0	1109	114.79306795525	76
0	1111	116.259734117962	77
0	1125	117.391746593477	78
0	1127	118.618325468456	79
0	1145	119.823667293951	80
0	1163	121.798106155429	81
0	1165	123.711003992777	82
0	1183	125.254001662438	83
0	1201	127.036347593484	84
0	1219	128.892508742703	85
0	1237	130.350884298399	86
0	1255	132.169366605418	87
0	1257	133.322277202575	88
0	1275	134.824547150476	89
0	1293	136.335530574504	90
0	1311	137.399836445996	91
0	1329	138.49281029061	92
0	1347	140.200471662288	93
0	1365	141.708140047104	94
0	1371	143.672690997436	95
0	1389	144.848347744742	96
0	1407	145.85459788174	97
0	1425	147.488858931303	98
0	1443	149.185545986123	99
0	1461	150.309625502048	100
0	1479	151.398565154128	101
0	1497	152.737800086687	102
0	1515	154.246976192646	103
0	1533	155.593578315877	104
0	1551	157.349170504442	105
0	1569	158.463197536838	106
0	1571	160.204385807809	107
0	1589	161.789759895137	108
0	1607	163.599978761353	109
0	1625	164.991630042276	110
0	1643	166.495196617745	111
0	1661	167.935469622795	112
0	1679	169.630669963617	113
0	1697	170.654962317623	114
0	1711	172.494839038305	115
0	1729	174.259529117566	116
0	1747	175.52240939492	117
0	1765	177.232272528416	118
0	1783	178.651686131094	119
0	1801	180.347069333379	120
0	1819	181.388232020267	121
0	1837	182.410571517494	122
0	1855	184.29896400131	123
0	1873	186.015790038581	124
0	1879	187.453748337763	125
0	1897	189.434596048739	126
0	1915	191.108371622931	127
0	1933	192.14172176465	128
0	1951	193.667276521982	129
0	1969	194.894456980587	130
0	1987	196.865463570529	131
0	2005	198.663176110317	132
0	2023	200.319367197878	133
0	2041	201.820270237583	134
0	2059	203.557509206073	135
0	2077	205.506433214597	136
0	2095	206.7773716965	137
0	2113	208.560810759269	138
0	2131	209.61756865827	139
0	2149	210.779941348663	140
0	2167	212.562090159931	141
0	2185	214.404693157018	142
0	2203	216.031991585695	143
0	2221	217.801295323369	144
0	2239	218.894896572295	145
0	2257	220.512897756954	146
0	2275	221.579580548524	147
0	2293	223.329690460653	148
0	2311	224.466645805703	149
0	2313	225.780940596319	150
0	2331	226.868035723527	151
0	2333	228.525093850286	152
0	2351	230.422133299361	153
0	2369	232.301357598349	154
0	2387	233.390115741014	155
0	2405	234.859895553046	156
0	2423	236.306841070603	157
0	2441	238.148836480526	158
0	2459	239.917599017571	159
1	3	0.14297423212	0
1	3	0.14297423212	1
1	3	0.14297423212	2
1	23	2.896236354478	3
1	23	2.896236354478	4
1	23	2.896236354478	5
1	41	4.039228317631	6
1	41	4.039228317631	7
1	41	4.039228317631	8
1	59	5.58855053472	9
1	59	5.58855053472	10
1	59	5.58855053472	11
1	77	7.306998150165	12
1	77	7.306998150165	13
1	77	7.306998150165	14
1	95	9.037002148684	15
1	95	9.037002148684	16
1	95	9.037002148684	17
1	113	10.898660717689	18
1	113	10.898660717689	19
1	113	10.898660717689	20
1	131	12.255281017123	21
1	131	12.255281017123	22
1	131	12.255281017123	23
1	149	13.777665747838	24
1	149	13.777665747838	25
1	149	13.777665747838	26
1	167	15.704331786585	27
1	167	15.704331786585	28
1	167	15.704331786585	29
1	185	16.783684270883	30
1	185	16.783684270883	31
1	185	16.783684270883	32
1	203	18.582248573866	33
1	203	18.582248573866	34
1	203	18.582248573866	35
1	221	19.835467775524	36
1	221	19.835467775524	37
1	221	19.835467775524	38
1	241	22.353666699668	39
1	241	22.353666699668	40
1	241	22.353666699668	41
1	263	26.231572600881	42
1	263	26.231572600881	43
1	263	26.231572600881	44
1	281	28.10296142322	45
1	281	28.10296142322	46
1	281	28.10296142322	47
1	299	29.793643902166	48
1	299	29.793643902166	49
1	299	29.793643902166	50
1	317	31.193550274944	51
1	317	31.193550274944	52
1	317	31.193550274944	53
1	337	34.219662267192	54
1	337	34.219662267192	55
1	337	34.219662267192	56
1	355	36.14844541092	57
1	355	36.14844541092	58
1	355	36.14844541092	59
1	377	40.103096810307	60
1	377	40.103096810307	61
1	377	40.103096810307	62
1	397	43.243379011023	63
1	397	43.243379011023	64
1	397	43.243379011023	65
1	415	44.621584743063	66
1	415	44.621584743063	67
1	415	44.621584743063	68
1	433	46.202261782209	69
1	433	46.202261782209	70
1	433	46.202261782209	71
1	441	48.508427762578	72
1	441	48.508427762578	73
1	441	48.508427762578	74
1	459	50.451650766103	75
1	459	50.451650766103	76
1	459	50.451650766103	77
1	477	52.192897992405	78
1	477	52.192897992405	79
1	477	52.192897992405	80
1	487	53.731163436498	81
1	487	53.731163436498	82
1	487	53.731163436498	83
1	505	55.067266108411	84
1	505	55.067266108411	85
1	505	55.067266108411	86
1	523	56.594819327517	87
1	523	56.594819327517	88
1	523	56.594819327517	89
1	541	57.705324115506	90
1	541	57.705324115506	91
1	541	57.705324115506	92
1	559	59.528842519745	93
1	559	59.528842519745	94
1	559	59.528842519745	95
1	577	60.936366039833	96
1	577	60.936366039833	97
1	577	60.936366039833	98
1	595	62.909312565505	99
1	595	62.909312565505	100
1	595	62.909312565505	101
1	613	64.705430188182	102
1	613	64.705430188182	103
1	613	64.705430188182	104
1	633	67.749217865912	105
1	633	67.749217865912	106
1	633	67.749217865912	107
1	651	69.394736787335	108
1	651	69.394736787335	109
1	651	69.394736787335	110
1	669	71.05263554185	111
1	669	71.05263554185	112
1	669	71.05263554185	113
1	687	72.547967784195	114
1	687	72.547967784195	115
1	687	72.547967784195	116
1	705	74.074815563013	117
1	705	74.074815563013	118
1	705	74.074815563013	119
1	723	75.403014213404	120
1	723	75.403014213404	121
1	723	75.403014213404	122
1	743	78.46040296105	123
1	743	78.46040296105	124
1	743	78.46040296105	125
1	761	79.769603098583	126
1	761	79.769603098583	127
1	761	79.769603098583	128
1	779	81.206891621284	129
1	779	81.206891621284	130
1	779	81.206891621284	131
1	797	82.909770473879	132
1	797	82.909770473879	133
1	797	82.909770473879	134
1	815	84.392879283088	135
1	815	84.392879283088	136
1	815	84.392879283088	137
1	833	85.939607011308	138
1	833	85.939607011308	139
1	833	85.939607011308	140
1	851	87.55010696277	141
1	851	87.55010696277	142
1	851	87.55010696277	143
1	869	88.576072351586	144
1	869	88.576072351586	145
1	869	88.576072351586	146
1	887	90.538333740678	147
1	887	90.538333740678	148
1	887	90.538333740678	149
1	905	91.708219457071	150
1	905	91.708219457071	151
1	905	91.708219457071	152
1	923	92.995338116476	153
1	923	92.995338116476	154
1	923	92.995338116476	155
1	941	94.312275371455	156
1	941	94.312275371455	157
1	941	94.312275371455	158
1	959	95.915497322036	159
1	959	95.915497322036	160
1	959	95.915497322036	161
1	979	98.769274128862	162
1	979	98.769274128862	163
1	979	98.769274128862	164
1	999	101.635128972325	165
1	999	101.635128972325	166
1	999	101.635128972325	167
1	1019	105.20802428841	168
1	1019	105.20802428841	169
1	1019	105.20802428841	170
1	1039	108.021069675202	171
1	1039	108.021069675202	172
1	1039	108.021069675202	173
1	1057	109.687033670048	174
1	1057	109.687033670048	175
1	1057	109.687033670048	176
1	1075	111.438319905797	177
1	1075	111.438319905797	178
1	1075	111.438319905797	179
1	1093	113.320675301723	180
1	1093	113.320675301723	181
1	1093	113.320675301723	182
1	1113	116.273573582648	183
1	1113	116.273573582648	184
1	1113	116.273573582648	185
1	1129	118.628368105587	186
1	1129	118.628368105587	187
1	1129	118.628368105587	188
1	1147	119.8351439333	189
1	1147	119.8351439333	190
1	1147	119.8351439333	191
1	1167	123.726391410439	192
1	1167	123.726391410439	193
1	1167	123.726391410439	194
1	1185	125.269746973449	195
1	1185	125.269746973449	196
1	1185	125.269746973449	197
1	1203	127.056732059418	198
1	1203	127.056732059418	199
1	1203	127.056732059418	200
1	1221	128.909243652519	201
1	1221	128.909243652519	202
1	1221	128.909243652519	203
1	1239	130.385641952533	204
1	1239	130.385641952533	205
1	1239	130.385641952533	206
1	1259	133.342010893387	207
1	1259	133.342010893387	208
1	1259	133.342010893387	209
1	1277	134.839100355612	210
1	1277	134.839100355612	211
1	1277	134.839100355612	212
1	1295	136.346663164232	213
1	1295	136.346663164232	214
1	1295	136.346663164232	215
1	1313	137.417732100954	216
1	1313	137.417732100954	217
1	1313	137.417732100954	218
1	1331	138.505294137371	219
1	1331	138.505294137371	220
1	1331	138.505294137371	221
1	1349	140.213452564827	222
1	1349	140.213452564827	223
1	1349	140.213452564827	224
1	1367	141.726623230997	225
1	1367	141.726623230997	226
1	1367	141.726623230997	227
1	1373	143.687455498496	228
1	1373	143.687455498496	229
1	1373	143.687455498496	230
1	1391	144.862461419441	231
1	1391	144.862461419441	232
1	1391	144.862461419441	233
1	1409	145.87334880234	234
1	1409	145.87334880234	235
1	1409	145.87334880234	236
1	1427	147.500449548264	237
1	1427	147.500449548264	238
1	1427	147.500449548264	239
1	1445	149.198145544287	240
1	1445	149.198145544287	241
1	1445	149.198145544287	242
1	1463	150.321404894088	243
1	1463	150.321404894088	244
1	1463	150.321404894088	245
1	1481	151.408790372812	246
1	1481	151.408790372812	247
1	1481	151.408790372812	248
1	1499	152.757090770941	249
1	1499	152.757090770941	250
1	1499	152.757090770941	251
1	1517	154.308730374376	252
1	1517	154.308730374376	253
1	1517	154.308730374376	254
1	1535	155.609989266298	255
1	1535	155.609989266298	256
1	1535	155.609989266298	257
1	1553	157.359758960044	258
1	1553	157.359758960044	259
1	1553	157.359758960044	260
1	1573	160.218536402945	261
1	1573	160.218536402945	262
1	1573	160.218536402945	263
1	1591	161.813902920366	264
1	1591	161.813902920366	265
1	1591	161.813902920366	266
1	1609	163.612281811675	267
1	1609	163.612281811675	268
1	1609	163.612281811675	269
1	1627	165.024346967856	270
1	1627	165.024346967856	271
1	1627	165.024346967856	272
1	1645	166.511376192577	273
1	1645	166.511376192577	274
1	1645	166.511376192577	275
1	1663	167.968421408206	276
1	1663	167.968421408206	277
1	1663	167.968421408206	278
1	1681	169.650971044322	279
1	1681	169.650971044322	280
1	1681	169.650971044322	281
1	1699	170.674118540568	282
1	1699	170.674118540568	283
1	1699	170.674118540568	284
1	1713	172.518288671582	285
1	1713	172.518288671582	286
1	1713	172.518288671582	287
1	1731	174.280889448579	288
1	1731	174.280889448579	289
1	1731	174.280889448579	290
1	1749	175.534414921841	291
1	1749	175.534414921841	292
1	1749	175.534414921841	293
1	1767	177.250463839966	294
1	1767	177.250463839966	295
1	1767	177.250463839966	296
1	1785	178.665468561125	297
1	1785	178.665468561125	298
1	1785	178.665468561125	299
1	1803	180.369943782924	300
1	1803	180.369943782924	301
1	1803	180.369943782924	302
1	1821	181.415953971407	303
1	1821	181.415953971407	304
1	1821	181.415953971407	305
1	1839	182.428933667693	306
1	1839	182.428933667693	307
1	1839	182.428933667693	308
1	1857	184.315081632486	309
1	1857	184.315081632486	310
1	1857	184.315081632486	311
1	1875	186.031250338128	312
1	1875	186.031250338128	313
1	1875	186.031250338128	314
1	1881	187.463870616937	315
1	1881	187.463870616937	316
1	1881	187.463870616937	317
1	1899	189.445843465713	318
1	1899	189.445843465713	319
1	1899	189.445843465713	320
1	1917	191.144750004835	321
1	1917	191.144750004835	322
1	1917	191.144750004835	323
1	1935	192.153204346464	324
1	1935	192.153204346464	325
1	1935	192.153204346464	326
1	1953	193.688848526445	327
1	1953	193.688848526445	328
1	1953	193.688848526445	329
1	1971	194.925902154865	330
1	1971	194.925902154865	331
1	1971	194.925902154865	332
1	1989	196.875821786352	333
1	1989	196.875821786352	334
1	1989	196.875821786352	335
1	2007	198.698154415947	336
1	2007	198.698154415947	337
1	2007	198.698154415947	338
1	2025	200.33079083422	339
1	2025	200.33079083422	340
1	2025	200.33079083422	341
1	2043	201.834903332285	342
1	2043	201.834903332285	343
1	2043	201.834903332285	344
1	2061	203.58387488006	345
1	2061	203.58387488006	346
1	2061	203.58387488006	347
1	2079	205.542898997317	348
1	2079	205.542898997317	349
1	2079	205.542898997317	350
1	2097	206.790566842973	351
1	2097	206.790566842973	352
1	2097	206.790566842973	353
1	2115	208.577298027352	354
1	2115	208.577298027352	355
1	2115	208.577298027352	356
1	2133	209.636097557912	357
1	2133	209.636097557912	358
1	2133	209.636097557912	359
1	2151	210.800171801014	360
1	2151	210.800171801014	361
1	2151	210.800171801014	362
1	2169	212.572333491258	363
1	2169	212.572333491258	364
1	2169	212.572333491258	365
1	2187	214.428147487164	366
1	2187	214.428147487164	367
1	2187	214.428147487164	368
1	2205	216.049613170581	369
1	2205	216.049613170581	370
1	2205	216.049613170581	371
1	2223	217.820925594745	372
1	2223	217.820925594745	373
1	2223	217.820925594745	374
1	2241	218.945727597417	375
1	2241	218.945727597417	376
1	2241	218.945727597417	377
1	2259	220.534840195936	378
1	2259	220.534840195936	379
1	2259	220.534840195936	380
1	2277	221.593464256919	381
1	2277	221.593464256919	382
1	2277	221.593464256919	383
1	2295	223.352665771213	384
1	2295	223.352665771213	385
1	2295	223.352665771213	386
1	2315	225.798862367583	387
1	2315	225.798862367583	388
1	2315	225.798862367583	389
1	2335	228.54324816497	390
1	2335	228.54324816497	391
1	2335	228.54324816497	392
1	2353	230.447485736327	393
1	2353	230.447485736327	394
1	2353	230.447485736327	395
1	2371	232.326462089747	396
1	2371	232.326462089747	397
1	2371	232.326462089747	398
1	2389	233.402291249182	399
1	2389	233.402291249182	400
1	2389	233.402291249182	401
1	2407	234.893485057202	402
1	2407	234.893485057202	403
1	2407	234.893485057202	404
1	2425	236.343064069216	405
1	2425	236.343064069216	406
1	2425	236.343064069216	407
1	2443	238.182005933098	408
1	2443	238.182005933098	409
1	2443	238.182005933098	410
1	2461	239.932292496485	411
1	2461	239.932292496485	412
1	2461	239.932292496485	413
2	7	0.160124635094	0
2	7	0.160124635094	1
2	7	0.160124635094	2
2	27	2.909500407243	3
2	27	2.909500407243	4
2	27	2.909500407243	5
2	46	4.055034608057	6
2	46	4.055034608057	7
2	46	4.055034608057	8
2	63	5.609709655792	9
2	63	5.609709655792	10
2	63	5.609709655792	11
2	81	7.322215666407	12
2	81	7.322215666407	13
2	81	7.322215666407	14
2	99	9.053064911658	15
2	99	9.053064911658	16
2	99	9.053064911658	17
2	118	10.92040786535	18
2	118	10.92040786535	19
2	118	10.92040786535	20
2	135	12.268060650603	21
2	135	12.268060650603	22
2	135	12.268060650603	23
2	153	13.78841904265	24
2	153	13.78841904265	25
2	153	13.78841904265	26
2	171	15.722119265894	27
2	171	15.722119265894	28
2	171	15.722119265894	29
2	189	16.804481957462	30
2	189	16.804481957462	31
2	189	16.804481957462	32
2	212	18.628039272247	33
2	212	18.628039272247	34
2	212	18.628039272247	35
2	226	19.847926598931	36
2	226	19.847926598931	37
2	226	19.847926598931	38
2	246	22.374197051487	39
2	246	22.374197051487	40
2	246	22.374197051487	41
2	271	26.259741061799	42
2	271	26.259741061799	43
2	271	26.259741061799	44
2	289	28.126473877405	45
2	289	28.126473877405	46
2	289	28.126473877405	47
2	303	29.809083982737	48
2	303	29.809083982737	49
2	303	29.809083982737	50
2	321	31.22114490965	51
2	321	31.22114490965	52
2	321	31.22114490965	53
2	345	34.248521027938	54
2	345	34.248521027938	55
2	345	34.248521027938	56
2	359	36.161069925084	57
2	359	36.161069925084	58
2	359	36.161069925084	59
2	382	40.120369733113	60
2	382	40.120369733113	61
2	382	40.120369733113	62
2	401	43.254089137863	63
2	401	43.254089137863	64
2	401	43.254089137863	65
2	419	44.63624982457	66
2	419	44.63624982457	67
2	419	44.63624982457	68
2	449	48.540266038716	69
2	449	48.540266038716	70
2	449	48.540266038716	71
2	463	50.463091989393	72
2	463	50.463091989393	73
2	463	50.463091989393	74
2	481	52.211269704996	75
2	481	52.211269704996	76
2	481	52.211269704996	77
2	491	53.743994169821	78
2	491	53.743994169821	79
2	491	53.743994169821	80
2	509	55.083533956694	81
2	509	55.083533956694	82
2	509	55.083533956694	83
2	527	56.610988015351	84
2	527	56.610988015351	85
2	527	56.610988015351	86
2	550	57.739942439652	87
2	550	57.739942439652	88
2	550	57.739942439652	89
2	567	59.561939711856	90
2	567	59.561939711856	91
2	567	59.561939711856	92
2	581	60.947586950465	93
2	581	60.947586950465	94
2	581	60.947586950465	95
2	599	62.934959801252	96
2	599	62.934959801252	97
2	599	62.934959801252	98
2	617	64.721445200177	99
2	617	64.721445200177	100
2	617	64.721445200177	101
2	637	67.766479622168	102
2	637	67.766479622168	103
2	637	67.766479622168	104
2	655	69.407889266088	105
2	655	69.407889266088	106
2	655	69.407889266088	107
2	673	71.063037112426	108
2	673	71.063037112426	109
2	673	71.063037112426	110
2	692	72.56602943884	111
2	692	72.56602943884	112
2	692	72.56602943884	113
2	709	74.092667704284	114
2	709	74.092667704284	115
2	709	74.092667704284	116
2	732	75.438330350121	117
2	732	75.438330350121	118
2	732	75.438330350121	119
2	747	78.479648717187	120
2	747	78.479648717187	121
2	747	78.479648717187	122
2	765	79.779734790021	123
2	765	79.779734790021	124
2	765	79.779734790021	125
2	784	81.229603098338	126
2	784	81.229603098338	127
2	784	81.229603098338	128
2	801	82.927278346908	129
2	801	82.927278346908	130
2	801	82.927278346908	131
2	827	84.454151932358	132
2	827	84.454151932358	133
2	827	84.454151932358	134
2	837	85.950460310925	135
2	837	85.950460310925	136
2	837	85.950460310925	137
2	855	87.567158477766	138
2	855	87.567158477766	139
2	855	87.567158477766	140
2	873	88.592008581623	141
2	873	88.592008581623	142
2	873	88.592008581623	143
2	892	90.556498287073	144
2	892	90.556498287073	145
2	892	90.556498287073	146
2	910	91.733576492805	147
2	910	91.733576492805	148
2	910	91.733576492805	149
2	927	93.020674487562	150
2	927	93.020674487562	151
2	927	93.020674487562	152
2	945	94.324677254642	153
2	945	94.324677254642	154
2	945	94.324677254642	155
2	963	95.92899894494	156
2	963	95.92899894494	157
2	963	95.92899894494	158
2	987	98.802578755251	159
2	987	98.802578755251	160
2	987	98.802578755251	161
2	1003	101.652728715083	162
2	1003	101.652728715083	163
2	1003	101.652728715083	164
2	1023	105.229363758235	165
2	1023	105.229363758235	166
2	1023	105.229363758235	167
2	1043	108.034503630705	168
2	1043	108.034503630705	169
2	1043	108.034503630705	170
2	1061	109.703799794366	171
2	1061	109.703799794366	172
2	1061	109.703799794366	173
2	1087	111.492148233232	174
2	1087	111.492148233232	175
2	1087	111.492148233232	176
2	1105	113.36277410738	177
2	1105	113.36277410738	178
2	1105	113.36277410738	179
2	1118	116.29543246247	180
2	1118	116.29543246247	181
2	1118	116.29543246247	182
2	1134	118.648397997514	183
2	1134	118.648397997514	184
2	1134	118.648397997514	185
2	1152	119.860990880316	186
2	1152	119.860990880316	187
2	1152	119.860990880316	188
2	1171	123.738367247718	189
2	1171	123.738367247718	190
2	1171	123.738367247718	191
2	1193	125.293184593683	192
2	1193	125.293184593683	193
2	1193	125.293184593683	194
2	1207	127.069786310548	195
2	1207	127.069786310548	196
2	1207	127.069786310548	197
2	1229	128.93231845547	198
2	1229	128.93231845547	199
2	1229	128.93231845547	200
2	1248	130.424625044258	201
2	1248	130.424625044258	202
2	1248	130.424625044258	203
2	1264	133.360334176872	204
2	1264	133.360334176872	205
2	1264	133.360334176872	206
2	1285	134.862947672391	207
2	1285	134.862947672391	208
2	1285	134.862947672391	209
2	1300	136.362695948911	210
2	1300	136.362695948911	211
2	1300	136.362695948911	212
2	1322	137.453965489727	213
2	1322	137.453965489727	214
2	1322	137.453965489727	215
2	1335	138.525557373659	216
2	1335	138.525557373659	217
2	1335	138.525557373659	218
2	1353	140.237107707523	219
2	1353	140.237107707523	220
2	1353	140.237107707523	221
2	1377	143.703672218498	222
2	1377	143.703672218498	223
2	1377	143.703672218498	224
2	1396	144.884181904851	225
2	1396	144.884181904851	226
2	1396	144.884181904851	227
2	1418	145.900748279635	228
2	1418	145.900748279635	229
2	1418	145.900748279635	230
2	1432	147.536532942802	231
2	1432	147.536532942802	232
2	1432	147.536532942802	233
2	1449	149.208959155683	234
2	1449	149.208959155683	235
2	1449	149.208959155683	236
2	1467	150.341101867079	237
2	1467	150.341101867079	238
2	1467	150.341101867079	239
2	1486	151.426055326732	240
2	1486	151.426055326732	241
2	1486	151.426055326732	242
2	1504	152.776622545382	243
2	1504	152.776622545382	244
2	1504	152.776622545382	245
2	1521	154.320240334875	246
2	1521	154.320240334875	247
2	1521	154.320240334875	248
2	1544	155.646042076872	249
2	1544	155.646042076872	250
2	1544	155.646042076872	251
2	1557	157.371558455623	252
2	1557	157.371558455623	253
2	1557	157.371558455623	254
2	1582	160.245382105851	255
2	1582	160.245382105851	256
2	1582	160.245382105851	257
2	1600	161.851431186399	258
2	1600	161.851431186399	259
2	1600	161.851431186399	260
2	1614	163.634942723642	261
2	1614	163.634942723642	262
2	1614	163.634942723642	263
2	1639	165.099685477819	264
2	1639	165.099685477819	265
2	1639	165.099685477819	266
2	1653	166.535520697066	267
2	1653	166.535520697066	268
2	1653	166.535520697066	269
2	1667	167.980325523344	270
2	1667	167.980325523344	271
2	1667	167.980325523344	272
2	1686	169.668173441635	273
2	1686	169.668173441635	274
2	1686	169.668173441635	275
2	1704	170.689791119426	276
2	1704	170.689791119426	277
2	1704	170.689791119426	278
2	1717	172.561315836362	279
2	1717	172.561315836362	280
2	1717	172.561315836362	281
2	1735	174.297728007937	282
2	1735	174.297728007937	283
2	1735	174.297728007937	284
2	1757	175.557908497684	285
2	1757	175.557908497684	286
2	1757	175.557908497684	287
2	1775	177.281913901253	288
2	1775	177.281913901253	289
2	1775	177.281913901253	290
2	1794	178.724218222325	291
2	1794	178.724218222325	292
2	1794	178.724218222325	293
2	1807	180.388500274091	294
2	1807	180.388500274091	295
2	1807	180.388500274091	296
2	1826	181.434750679205	297
2	1826	181.434750679205	298
2	1826	181.434750679205	299
2	1843	182.439916180653	300
2	1843	182.439916180653	301
2	1843	182.439916180653	302
2	1861	184.328798662643	303
2	1861	184.328798662643	304
2	1861	184.328798662643	305
2	1886	187.487639863317	306
2	1886	187.487639863317	307
2	1886	187.487639863317	308
2	1903	189.459271919123	309
2	1903	189.459271919123	310
2	1903	189.459271919123	311
2	1921	191.168035790635	312
2	1921	191.168035790635	313
2	1921	191.168035790635	314
2	1943	192.18629217307	315
2	1943	192.18629217307	316
2	1943	192.18629217307	317
2	1958	193.702151681998	318
2	1958	193.702151681998	319
2	1958	193.702151681998	320
2	1975	194.947261649293	321
2	1975	194.947261649293	322
2	1975	194.947261649293	323
2	1994	196.894498741895	324
2	1994	196.894498741895	325
2	1994	196.894498741895	326
2	2019	198.748212685586	327
2	2019	198.748212685586	328
2	2019	198.748212685586	329
2	2030	200.344986067693	330
2	2030	200.344986067693	331
2	2030	200.344986067693	332
2	2048	201.851491526687	333
2	2048	201.851491526687	334
2	2048	201.851491526687	335
2	2070	203.623641112035	336
2	2070	203.623641112035	337
2	2070	203.623641112035	338
2	2083	205.557273549968	339
2	2083	205.557273549968	340
2	2083	205.557273549968	341
2	2106	206.833992471846	342
2	2106	206.833992471846	343
2	2106	206.833992471846	344
2	2127	208.6397396797	345
2	2127	208.6397396797	346
2	2127	208.6397396797	347
2	2138	209.655000583527	348
2	2138	209.655000583527	349
2	2138	209.655000583527	350
2	2156	210.81866406778	351
2	2156	210.81866406778	352
2	2156	210.81866406778	353
2	2178	212.604716904717	354
2	2178	212.604716904717	355
2	2178	212.604716904717	356
2	2191	214.450225748277	357
2	2191	214.450225748277	358
2	2191	214.450225748277	359
2	2210	216.069522704704	360
2	2210	216.069522704704	361
2	2210	216.069522704704	362
2	2228	217.832430489269	363
2	2228	217.832430489269	364
2	2228	217.832430489269	365
2	2246	218.963138245787	366
2	2246	218.963138245787	367
2	2246	218.963138245787	368
2	2263	220.551327243387	369
2	2263	220.551327243387	370
2	2263	220.551327243387	371
2	2289	221.638309799274	372
2	2289	221.638309799274	373
2	2289	221.638309799274	374
2	2299	223.363819996047	375
2	2299	223.363819996047	376
2	2299	223.363819996047	377
2	2319	225.812272566104	378
2	2319	225.812272566104	379
2	2319	225.812272566104	380
2	2339	228.553574185066	381
2	2339	228.553574185066	382
2	2339	228.553574185066	383
2	2365	230.502095424912	384
2	2365	230.502095424912	385
2	2365	230.502095424912	386
2	2376	232.364618653821	387
2	2376	232.364618653821	388
2	2376	232.364618653821	389
2	2393	233.418884877667	390
2	2393	233.418884877667	391
2	2393	233.418884877667	392
2	2415	234.921195864766	393
2	2415	234.921195864766	394
2	2415	234.921195864766	395
2	2429	236.356176017384	396
2	2429	236.356176017384	397
2	2429	236.356176017384	398
2	2447	238.193256838114	399
2	2447	238.193256838114	400
2	2447	238.193256838114	401
2	2469	239.96214577953	402
2	2469	239.96214577953	403
2	2469	239.96214577953	404
3	11	0.170313894915	0
3	11	0.170313894915	1
3	11	0.170313894915	2
3	35	2.943953588758	3
3	35	2.943953588758	4
3	35	2.943953588758	5
3	53	4.076090226982	6
3	53	4.076090226982	7
3	53	4.076090226982	8
3	68	5.624801108757	9
3	68	5.624801108757	10
3	68	5.624801108757	11
3	89	7.341622106819	12
3	89	7.341622106819	13
3	89	7.341622106819	14
3	103	9.065313595967	15
3	103	9.065313595967	16
3	103	9.065313595967	17
3	125	10.941376408533	18
3	125	10.941376408533	19
3	125	10.941376408533	20
3	139	12.278275193058	21
3	139	12.278275193058	22
3	139	12.278275193058	23
3	161	13.844776561966	24
3	161	13.844776561966	25
3	161	13.844776561966	26
3	179	15.737648422869	27
3	179	15.737648422869	28
3	179	15.737648422869	29
3	193	16.817814435078	30
3	193	16.817814435078	31
3	193	16.817814435078	32
3	211	18.622225554705	33
3	211	18.622225554705	34
3	211	18.622225554705	35
3	233	19.879711073055	36
3	233	19.879711073055	37
3	233	19.879711073055	38
3	253	22.390748277194	39
3	253	22.390748277194	40
3	253	22.390748277194	41
3	272	26.265212125534	42
3	272	26.265212125534	43
3	272	26.265212125534	44
3	293	28.143096512363	45
3	293	28.143096512363	46
3	293	28.143096512363	47
3	308	29.825948975101	48
3	308	29.825948975101	49
3	308	29.825948975101	50
3	325	31.234517893225	51
3	325	31.234517893225	52
3	325	31.234517893225	53
3	346	34.249076065093	54
3	346	34.249076065093	55
3	346	34.249076065093	56
3	363	36.190327221663	57
3	363	36.190327221663	58
3	363	36.190327221663	59
3	389	40.13178259264	60
3	389	40.13178259264	61
3	389	40.13178259264	62
3	409	43.269541005428	63
3	409	43.269541005428	64
3	409	43.269541005428	65
3	427	44.661789342741	66
3	427	44.661789342741	67
3	427	44.661789342741	68
3	450	48.543501399366	69
3	450	48.543501399366	70
3	450	48.543501399366	71
3	471	50.487389903015	72
3	471	50.487389903015	73
3	471	50.487389903015	74
3	499	53.775127845176	75
3	499	53.775127845176	76
3	499	53.775127845176	77
3	517	55.112130633753	78
3	517	55.112130633753	79
3	517	55.112130633753	80
3	532	56.623111081329	81
3	532	56.623111081329	82
3	532	56.623111081329	83
3	549	57.732745259696	84
3	549	57.732745259696	85
3	549	57.732745259696	86
3	571	59.582501102971	87
3	571	59.582501102971	88
3	571	59.582501102971	89
3	589	60.980323390796	90
3	589	60.980323390796	91
3	589	60.980323390796	92
3	607	62.978341971614	93
3	607	62.978341971614	94
3	607	62.978341971614	95
3	625	64.73742064198	96
3	625	64.73742064198	97
3	625	64.73742064198	98
3	645	67.785827829085	99
3	645	67.785827829085	100
3	645	67.785827829085	101
3	659	69.420631315854	102
3	659	69.420631315854	103
3	659	69.420631315854	104
3	677	71.081556696004	105
3	677	71.081556696004	106
3	677	71.081556696004	107
3	699	72.60251985156	108
3	699	72.60251985156	109
3	699	72.60251985156	110
3	717	74.151537743401	111
3	717	74.151537743401	112
3	717	74.151537743401	113
3	731	75.430803603192	114
3	731	75.430803603192	115
3	731	75.430803603192	116
3	755	78.49520982864	117
3	755	78.49520982864	118
3	755	78.49520982864	119
3	769	79.793191529361	120
3	769	79.793191529361	121
3	769	79.793191529361	122
3	788	81.237964010352	123
3	788	81.237964010352	124
3	788	81.237964010352	125
3	806	82.940231529278	126
3	806	82.940231529278	127
3	806	82.940231529278	128
3	823	84.442396475933	129
3	823	84.442396475933	130
3	823	84.442396475933	131
3	845	85.963319679315	132
3	845	85.963319679315	133
3	845	85.963319679315	134
3	859	87.579115767537	135
3	859	87.579115767537	136
3	859	87.579115767537	137
3	881	88.609903300286	138
3	881	88.609903300286	139
3	881	88.609903300286	140
3	899	90.585344086468	141
3	899	90.585344086468	142
3	899	90.585344086468	143
3	917	91.752445672112	144
3	917	91.752445672112	145
3	917	91.752445672112	146
3	935	93.074257505168	147
3	935	93.074257505168	148
3	935	93.074257505168	149
3	953	94.367084435647	150
3	953	94.367084435647	151
3	953	94.367084435647	152
3	971	95.940080107666	153
3	971	95.940080107666	154
3	971	95.940080107666	155
3	991	98.816218264191	156
3	991	98.816218264191	157
3	991	98.816218264191	158
3	1008	101.677659213142	159
3	1008	101.677659213142	160
3	1008	101.677659213142	161
3	1031	105.259108520196	162
3	1031	105.259108520196	163
3	1031	105.259108520196	164
3	1051	108.055281601771	165
3	1051	108.055281601771	166
3	1051	108.055281601771	167
3	1066	109.724294349371	168
3	1066	109.724294349371	169
3	1066	109.724294349371	170
3	1083	111.478395521428	171
3	1083	111.478395521428	172
3	1083	111.478395521428	173
3	1101	113.344524547849	174
3	1101	113.344524547849	175
3	1101	113.344524547849	176
3	1138	118.654227052512	177
3	1138	118.654227052512	178
3	1138	118.654227052512	179
3	1159	119.880563048516	180
3	1159	119.880563048516	181
3	1159	119.880563048516	182
3	1179	123.755759172756	183
3	1179	123.755759172756	184
3	1179	123.755759172756	185
3	1194	125.30189461535	186
3	1194	125.30189461535	187
3	1194	125.30189461535	188
3	1211	127.092301687464	189
3	1211	127.092301687464	190
3	1211	127.092301687464	191
3	1233	128.945734490379	192
3	1233	128.945734490379	193
3	1233	128.945734490379	194
3	1247	130.418863539001	195
3	1247	130.418863539001	196
3	1247	130.418863539001	197
3	1268	133.368859834261	198
3	1268	133.368859834261	199
3	1268	133.368859834261	200
3	1286	134.865816541604	201
3	1286	134.865816541604	202
3	1286	134.865816541604	203
3	1307	136.374201269062	204
3	1307	136.374201269062	205
3	1307	136.374201269062	206
3	1321	137.444429163036	207
3	1321	137.444429163036	208
3	1321	137.444429163036	209
3	1343	138.551497184419	210
3	1343	138.551497184419	211
3	1343	138.551497184419	212
3	1357	140.253112063618	213
3	1357	140.253112063618	214
3	1357	140.253112063618	215
3	1382	143.717407230355	216
3	1382	143.717407230355	217
3	1382	143.717407230355	218
3	1400	144.888213883691	219
3	1400	144.888213883691	220
3	1400	144.888213883691	221
3	1417	145.898988497296	222
3	1417	145.898988497296	223
3	1417	145.898988497296	224
3	1439	147.553028203918	225
3	1439	147.553028203918	226
3	1439	147.553028203918	227
3	1453	149.2221336814	228
3	1453	149.2221336814	229
3	1453	149.2221336814	230
3	1475	150.386800827572	231
3	1475	150.386800827572	232
3	1475	150.386800827572	233
3	1493	151.439676965111	234
3	1493	151.439676965111	235
3	1493	151.439676965111	236
3	1508	152.786563639956	237
3	1508	152.786563639956	238
3	1508	152.786563639956	239
3	1525	154.343283842098	240
3	1525	154.343283842098	241
3	1525	154.343283842098	242
3	1543	155.643569629448	243
3	1543	155.643569629448	244
3	1543	155.643569629448	245
3	1565	157.3990756885	246
3	1565	157.3990756885	247
3	1565	157.3990756885	248
3	1581	160.241321259505	249
3	1581	160.241321259505	250
3	1581	160.241321259505	251
3	1599	161.850483714647	252
3	1599	161.850483714647	253
3	1599	161.850483714647	254
3	1618	163.644328404156	255
3	1618	163.644328404156	256
3	1618	163.644328404156	257
3	1635	165.069202107527	258
3	1635	165.069202107527	259
3	1635	165.069202107527	260
3	1654	166.537876596439	261
3	1654	166.537876596439	262
3	1654	166.537876596439	263
3	1672	167.998431039618	264
3	1672	167.998431039618	265
3	1672	167.998431039618	266
3	1693	169.686192384904	267
3	1693	169.686192384904	268
3	1693	169.686192384904	269
3	1721	172.571414065809	270
3	1721	172.571414065809	271
3	1721	172.571414065809	272
3	1740	174.315587544218	273
3	1740	174.315587544218	274
3	1740	174.315587544218	275
3	1758	175.56016402664	276
3	1758	175.56016402664	277
3	1758	175.56016402664	278
3	1779	177.300361128316	279
3	1779	177.300361128316	280
3	1779	177.300361128316	281
3	1793	178.722652451017	282
3	1793	178.722652451017	283
3	1793	178.722652451017	284
3	1815	180.451237356854	285
3	1815	180.451237356854	286
3	1815	180.451237356854	287
3	1830	181.442291614956	288
3	1830	181.442291614956	289
3	1830	181.442291614956	290
3	1848	182.471386571129	291
3	1848	182.471386571129	292
3	1848	182.471386571129	293
3	1866	184.340527097503	294
3	1866	184.340527097503	295
3	1866	184.340527097503	296
3	1893	187.515830075003	297
3	1893	187.515830075003	298
3	1893	187.515830075003	299
3	1911	189.481326292221	300
3	1911	189.481326292221	301
3	1911	189.481326292221	302
3	1929	191.19611137848	303
3	1929	191.19611137848	304
3	1929	191.19611137848	305
3	1944	192.187907399438	306
3	1944	192.187907399438	307
3	1944	192.187907399438	308
3	1965	193.712976571369	309
3	1965	193.712976571369	310
3	1965	193.712976571369	311
3	1980	194.97092650442	312
3	1980	194.97092650442	313
3	1980	194.97092650442	314
3	1998	196.901785043931	315
3	1998	196.901785043931	316
3	1998	196.901785043931	317
3	2015	198.725204860711	318
3	2015	198.725204860711	319
3	2015	198.725204860711	320
3	2034	200.352436732704	321
3	2034	200.352436732704	322
3	2034	200.352436732704	323
3	2055	201.909284421008	324
3	2055	201.909284421008	325
3	2055	201.909284421008	326
3	2069	203.622857059431	327
3	2069	203.622857059431	328
3	2069	203.622857059431	329
3	2087	205.577286644184	330
3	2087	205.577286644184	331
3	2087	205.577286644184	332
3	2105	206.827415411839	333
3	2105	206.827415411839	334
3	2105	206.827415411839	335
3	2123	208.619574927414	336
3	2123	208.619574927414	337
3	2123	208.619574927414	338
3	2145	209.668383610536	339
3	2145	209.668383610536	340
3	2145	209.668383610536	341
3	2163	210.830826752101	342
3	2163	210.830826752101	343
3	2163	210.830826752101	344
3	2177	212.603091877254	345
3	2177	212.603091877254	346
3	2177	212.603091877254	347
3	2199	214.463684826825	348
3	2199	214.463684826825	349
3	2199	214.463684826825	350
3	2217	216.084177500568	351
3	2217	216.084177500568	352
3	2217	216.084177500568	353
3	2235	217.886010523518	354
3	2235	217.886010523518	355
3	2235	217.886010523518	356
3	2253	218.986532534157	357
3	2253	218.986532534157	358
3	2253	218.986532534157	359
3	2267	220.562589007405	360
3	2267	220.562589007405	361
3	2267	220.562589007405	362
3	2285	221.623623475718	363
3	2285	221.623623475718	364
3	2285	221.623623475718	365
3	2304	223.381428270865	366
3	2304	223.381428270865	367
3	2304	223.381428270865	368
3	2327	225.827236267404	369
3	2327	225.827236267404	370
3	2327	225.827236267404	371
3	2347	228.58434228536	372
3	2347	228.58434228536	373
3	2347	228.58434228536	374
3	2361	230.47790748988	375
3	2361	230.47790748988	376
3	2361	230.47790748988	377
3	2380	232.373875345972	378
3	2380	232.373875345972	379
3	2380	232.373875345972	380
3	2397	233.437818065076	381
3	2397	233.437818065076	382
3	2397	233.437818065076	383
3	2419	234.932985713417	384
3	2419	234.932985713417	385
3	2419	234.932985713417	386
3	2437	236.40093215791	387
3	2437	236.40093215791	388
3	2437	236.40093215791	389
3	2455	238.205250530749	390
3	2455	238.205250530749	391
3	2455	238.205250530749	392
3	2470	239.96463594592	393
3	2470	239.96463594592	394
3	2470	239.96463594592	395
4	12	0.175318540583	0
4	12	0.175318540583	1
4	12	0.175318540583	2
4	28	2.917514342596	3
4	28	2.917514342596	4
4	28	2.917514342596	5
4	45	4.050934632051	6
4	45	4.050934632051	7
4	45	4.050934632051	8
4	67	5.6218638895	9
4	67	5.6218638895	10
4	67	5.6218638895	11
4	82	7.323326957485	12
4	82	7.323326957485	13
4	82	7.323326957485	14
4	107	9.076226302507	15
4	107	9.076226302507	16
4	107	9.076226302507	17
4	117	10.920346144215	18
4	117	10.920346144215	19
4	117	10.920346144215	20
4	143	12.3008955973	21
4	143	12.3008955973	22
4	143	12.3008955973	23
4	154	13.789884391851	24
4	154	13.789884391851	25
4	154	13.789884391851	26
4	172	15.7266137791	27
4	172	15.7266137791	28
4	172	15.7266137791	29
4	194	16.818215474622	30
4	194	16.818215474622	31
4	194	16.818215474622	32
4	207	18.611284745804	33
4	207	18.611284745804	34
4	207	18.611284745804	35
4	225	19.847418359411	36
4	225	19.847418359411	37
4	225	19.847418359411	38
4	245	22.370186335511	39
4	245	22.370186335511	40
4	245	22.370186335511	41
4	267	26.243436300772	42
4	267	26.243436300772	43
4	267	26.243436300772	44
4	285	28.114681575648	45
4	285	28.114681575648	46
4	285	28.114681575648	47
4	307	29.824616864915	48
4	307	29.824616864915	49
4	307	29.824616864915	50
4	326	31.237139745856	51
4	326	31.237139745856	52
4	326	31.237139745856	53
4	341	34.233440567105	54
4	341	34.233440567105	55
4	341	34.233440567105	56
4	364	36.192053651181	57
4	364	36.192053651181	58
4	364	36.192053651181	59
4	381	40.114795947957	60
4	381	40.114795947957	61
4	381	40.114795947957	62
4	402	43.254174815543	63
4	402	43.254174815543	64
4	402	43.254174815543	65
4	420	44.641227390672	66
4	420	44.641227390672	67
4	420	44.641227390672	68
4	445	48.521634667166	69
4	445	48.521634667166	70
4	445	48.521634667166	71
4	464	50.464234755147	72
4	464	50.464234755147	73
4	464	50.464234755147	74
4	492	53.753407102751	75
4	492	53.753407102751	76
4	492	53.753407102751	77
4	513	55.096719861524	78
4	513	55.096719861524	79
4	513	55.096719861524	80
4	528	56.619960751317	81
4	528	56.619960751317	82
4	528	56.619960751317	83
4	545	57.717393754455	84
4	545	57.717393754455	85
4	545	57.717393754455	86
4	563	59.549892473302	87
4	563	59.549892473302	88
4	563	59.549892473302	89
4	585	60.96072575442	90
4	585	60.96072575442	91
4	585	60.96072575442	92
4	603	62.959875826059	93
4	603	62.959875826059	94
4	603	62.959875826059	95
4	618	64.723086841757	96
4	618	64.723086841757	97
4	618	64.723086841757	98
4	638	67.767662410667	99
4	638	67.767662410667	100
4	638	67.767662410667	101
4	663	69.432477887282	102
4	663	69.432477887282	103
4	663	69.432477887282	104
4	678	71.086193819218	105
4	678	71.086193819218	106
4	678	71.086193819218	107
4	691	72.563404595026	108
4	691	72.563404595026	109
4	691	72.563404595026	110
4	713	74.133777872634	111
4	713	74.133777872634	112
4	713	74.133777872634	113
4	727	75.418533246299	114
4	727	75.418533246299	115
4	727	75.418533246299	116
4	748	78.480067763847	117
4	748	78.480067763847	118
4	748	78.480067763847	119
4	770	79.794544627567	120
4	770	79.794544627567	121
4	770	79.794544627567	122
4	783	81.223444198364	123
4	783	81.223444198364	124
4	783	81.223444198364	125
4	802	82.930959429297	126
4	802	82.930959429297	127
4	802	82.930959429297	128
4	819	84.428756438792	129
4	819	84.428756438792	130
4	819	84.428756438792	131
4	838	85.953049989948	132
4	838	85.953049989948	133
4	838	85.953049989948	134
4	860	87.589049526264	135
4	860	87.589049526264	136
4	860	87.589049526264	137
4	874	88.593116393877	138
4	874	88.593116393877	139
4	874	88.593116393877	140
4	891	90.548481981886	141
4	891	90.548481981886	142
4	891	90.548481981886	143
4	909	91.725127061809	144
4	909	91.725127061809	145
4	909	91.725127061809	146
4	928	93.021640448128	147
4	928	93.021640448128	148
4	928	93.021640448128	149
4	949	94.340743214002	150
4	949	94.340743214002	151
4	949	94.340743214002	152
4	964	95.929676419612	153
4	964	95.929676419612	154
4	964	95.929676419612	155
4	983	98.785956053608	156
4	983	98.785956053608	157
4	983	98.785956053608	158
4	1007	101.671167163578	159
4	1007	101.671167163578	160
4	1007	101.671167163578	161
4	1027	105.241054742893	162
4	1027	105.241054742893	163
4	1027	105.241054742893	164
4	1047	108.044955581733	165
4	1047	108.044955581733	166
4	1047	108.044955581733	167
4	1065	109.715575350743	168
4	1065	109.715575350743	169
4	1065	109.715575350743	170
4	1079	111.462684773738	171
4	1079	111.462684773738	172
4	1079	111.462684773738	173
4	1097	113.333161495498	174
4	1097	113.333161495498	175
4	1097	113.333161495498	176
4	1117	116.294451099868	177
4	1117	116.294451099868	178
4	1117	116.294451099868	179
4	1133	118.641409639456	180
4	1133	118.641409639456	181
4	1133	118.641409639456	182
4	1151	119.854307146065	183
4	1151	119.854307146065	184
4	1151	119.854307146065	185
4	1172	123.739201474755	186
4	1172	123.739201474755	187
4	1172	123.739201474755	188
4	1189	125.279925076255	189
4	1189	125.279925076255	190
4	1189	125.279925076255	191
4	1215	127.102746417985	192
4	1215	127.102746417985	193
4	1215	127.102746417985	194
4	1225	128.922245317271	195
4	1225	128.922245317271	196
4	1225	128.922245317271	197
4	1243	130.402757390945	198
4	1243	130.402757390945	199
4	1243	130.402757390945	200
4	1263	133.353346152211	201
4	1263	133.353346152211	202
4	1263	133.353346152211	203
4	1281	134.851824747712	204
4	1281	134.851824747712	205
4	1281	134.851824747712	206
4	1299	136.358429405013	207
4	1299	136.358429405013	208
4	1299	136.358429405013	209
4	1317	137.429767541498	210
4	1317	137.429767541498	211
4	1317	137.429767541498	212
4	1336	138.531789352613	213
4	1336	138.531789352613	214
4	1336	138.531789352613	215
4	1358	140.25728149004	216
4	1358	140.25728149004	217
4	1358	140.25728149004	218
4	1381	143.714282265553	219
4	1381	143.714282265553	220
4	1381	143.714282265553	221
4	1395	144.876152332077	222
4	1395	144.876152332077	223
4	1395	144.876152332077	224
4	1413	145.888849170332	225
4	1413	145.888849170332	226
4	1413	145.888849170332	227
4	1431	147.532428158879	228
4	1431	147.532428158879	229
4	1431	147.532428158879	230
4	1454	149.22288596215	231
4	1454	149.22288596215	232
4	1454	149.22288596215	233
4	1471	150.369697016538	234
4	1471	150.369697016538	235
4	1471	150.369697016538	236
4	1485	151.425873197028	237
4	1485	151.425873197028	238
4	1485	151.425873197028	239
4	1503	152.768847718782	240
4	1503	152.768847718782	241
4	1503	152.768847718782	242
4	1526	154.344470810791	243
4	1526	154.344470810791	244
4	1526	154.344470810791	245
4	1539	155.620378627785	246
4	1539	155.620378627785	247
4	1539	155.620378627785	248
4	1561	157.389047162283	249
4	1561	157.389047162283	250
4	1561	157.389047162283	251
4	1577	160.230233086747	252
4	1577	160.230233086747	253
4	1577	160.230233086747	254
4	1595	161.83687479142	255
4	1595	161.83687479142	256
4	1595	161.83687479142	257
4	1613	163.630825378503	258
4	1613	163.630825378503	259
4	1613	163.630825378503	260
4	1631	165.037764565084	261
4	1631	165.037764565084	262
4	1631	165.037764565084	263
4	1649	166.524776895675	264
4	1649	166.524776895675	265
4	1649	166.524776895675	266
4	1671	167.990950487978	267
4	1671	167.990950487978	268
4	1671	167.990950487978	269
4	1685	169.66796234191	270
4	1685	169.66796234191	271
4	1685	169.66796234191	272
4	1703	170.68434814018	273
4	1703	170.68434814018	274
4	1703	170.68434814018	275
4	1722	172.571876956829	276
4	1722	172.571876956829	277
4	1722	172.571876956829	278
4	1739	174.308539186403	279
4	1739	174.308539186403	280
4	1739	174.308539186403	281
4	1753	175.546777762681	282
4	1753	175.546777762681	283
4	1753	175.546777762681	284
4	1771	177.269130674622	285
4	1771	177.269130674622	286
4	1771	177.269130674622	287
4	1789	178.686324294056	288
4	1789	178.686324294056	289
4	1789	178.686324294056	290
4	1811	180.41464450661	291
4	1811	180.41464450661	292
4	1811	180.41464450661	293
4	1825	181.430398711228	294
4	1825	181.430398711228	295
4	1825	181.430398711228	296
4	1847	182.4687196726	297
4	1847	182.4687196726	298
4	1847	182.4687196726	299
4	1862	184.332398041179	300
4	1862	184.332398041179	301
4	1862	184.332398041179	302
4	1885	187.477714610375	303
4	1885	187.477714610375	304
4	1885	187.477714610375	305
4	1904	189.467438857273	306
4	1904	189.467438857273	307
4	1904	189.467438857273	308
4	1925	191.182978167727	309
4	1925	191.182978167727	310
4	1925	191.182978167727	311
4	1939	192.168139433561	312
4	1939	192.168139433561	313
4	1939	192.168139433561	314
4	1957	193.69946335376	315
4	1957	193.69946335376	316
4	1957	193.69946335376	317
4	1979	194.966325520601	318
4	1979	194.966325520601	319
4	1979	194.966325520601	320
4	1993	196.89045322922	321
4	1993	196.89045322922	322
4	1993	196.89045322922	323
4	2011	198.710407277727	324
4	2011	198.710407277727	325
4	2011	198.710407277727	326
4	2029	200.341651431835	327
4	2029	200.341651431835	328
4	2029	200.341651431835	329
4	2047	201.849127807607	330
4	2047	201.849127807607	331
4	2047	201.849127807607	332
4	2065	203.603233356301	333
4	2065	203.603233356301	334
4	2065	203.603233356301	335
4	2091	205.603049744445	336
4	2091	205.603049744445	337
4	2091	205.603049744445	338
4	2101	206.811725039349	339
4	2101	206.811725039349	340
4	2101	206.811725039349	341
4	2119	208.595792985649	342
4	2119	208.595792985649	343
4	2119	208.595792985649	344
4	2137	209.652567989463	345
4	2137	209.652567989463	346
4	2137	209.652567989463	347
4	2155	210.813203076391	348
4	2155	210.813203076391	349
4	2155	210.813203076391	350
4	2173	212.590376878902	351
4	2173	212.590376878902	352
4	2173	212.590376878902	353
4	2192	214.451585849806	354
4	2192	214.451585849806	355
4	2192	214.451585849806	356
4	2209	216.06431144687	357
4	2209	216.06431144687	358
4	2209	216.06431144687	359
4	2227	217.832252114787	360
4	2227	217.832252114787	361
4	2227	217.832252114787	362
4	2245	218.960494298051	363
4	2245	218.960494298051	364
4	2245	218.960494298051	365
4	2268	220.569448842723	366
4	2268	220.569448842723	367
4	2268	220.569448842723	368
4	2281	221.605425932522	369
4	2281	221.605425932522	370
4	2281	221.605425932522	371
4	2300	223.37263102085	372
4	2300	223.37263102085	373
4	2300	223.37263102085	374
4	2320	225.812959642051	375
4	2320	225.812959642051	376
4	2320	225.812959642051	377
4	2340	228.561357680846	378
4	2340	228.561357680846	379
4	2340	228.561357680846	380
4	2357	230.467746650282	381
4	2357	230.467746650282	382
4	2357	230.467746650282	383
4	2375	232.361312815673	384
4	2375	232.361312815673	385
4	2375	232.361312815673	386
4	2398	233.442768978702	387
4	2398	233.442768978702	388
4	2398	233.442768978702	389
4	2411	234.91099236355	390
4	2411	234.91099236355	391
4	2411	234.91099236355	392
4	2430	236.360793816443	393
4	2430	236.360793816443	394
4	2430	236.360793816443	395
4	2448	238.194909567184	396
4	2448	238.194909567184	397
4	2448	238.194909567184	398
4	2465	239.949448693254	399
4	2465	239.949448693254	400
4	2465	239.949448693254	401
5	15	0.180313894915	0
5	38	2.953953588758	1
5	56	4.086090226982	2
5	74	5.634801108757	3
5	92	7.351622106819	4
5	106	9.075313595967	5
5	128	10.951376408533	6
5	164	13.854776561966	7
5	182	15.747648422869	8
5	197	16.827814435078	9
5	215	18.632225554705	10
5	236	19.889711073055	11
5	296	28.153096512363	12
5	314	29.835948975101	13
5	329	31.244517893225	14
5	352	34.259076065093	15
5	367	36.200327221663	16
5	392	40.14178259264	17
5	412	43.279541005428	18
5	430	44.671789342741	19
5	456	48.553501399366	20
5	474	50.497389903015	21
5	502	53.785127845176	22
5	520	55.122130633753	23
5	538	56.633111081329	24
5	553	57.742745259696	25
5	574	59.592501102971	26
5	592	60.990323390796	27
5	610	62.988341971614	28
5	628	64.74742064198	29
5	648	67.795827829085	30
5	681	71.091556696004	31
5	702	72.61251985156	32
5	720	74.161537743401	33
5	735	75.440803603192	34
5	758	78.50520982864	35
5	773	79.803191529361	36
5	794	81.247964010352	37
5	812	82.950231529278	38
5	863	87.589115767537	39
5	884	88.619903300286	40
5	902	90.595344086468	41
5	920	91.762445672112	42
5	938	93.084257505168	43
5	956	94.377084435647	44
5	974	95.950080107666	45
5	994	98.826218264191	46
5	1014	101.687659213142	47
5	1034	105.269108520196	48
5	1054	108.065281601771	49
5	1072	109.734294349371	50
5	1086	111.488395521428	51
5	1104	113.354524547849	52
5	1144	118.664227052512	53
5	1162	119.890563048516	54
5	1200	125.31189461535	55
5	1214	127.102301687464	56
5	1236	128.955734490379	57
5	1251	130.428863539001	58
5	1274	133.378859834261	59
5	1292	134.875816541604	60
5	1310	136.384201269062	61
5	1325	137.454429163036	62
5	1346	138.561497184419	63
5	1361	140.263112063618	64
5	1388	143.727407230355	65
5	1406	144.898213883691	66
5	1421	145.908988497296	67
5	1442	147.563028203918	68
5	1457	149.2321336814	69
5	1478	150.396800827572	70
5	1496	151.449676965111	71
5	1514	152.796563639956	72
5	1529	154.353283842098	73
5	1547	155.653569629448	74
5	1568	157.4090756885	75
5	1585	160.251321259505	76
5	1603	161.860483714647	77
5	1624	163.654328404156	78
5	1638	165.079202107527	79
5	1660	166.547876596439	80
5	1678	168.008431039618	81
5	1696	169.696192384904	82
5	1725	172.581414065809	83
5	1746	174.325587544218	84
5	1764	175.57016402664	85
5	1782	177.310361128316	86
5	1797	178.732652451017	87
5	1818	180.461237356854	88
5	1836	181.452291614956	89
5	1872	184.350527097503	90
5	1896	187.525830075003	91
5	1914	189.491326292221	92
5	1932	191.20611137848	93
5	1950	192.197907399438	94
5	1968	193.722976571369	95
5	1986	194.98092650442	96
5	2004	196.911785043931	97
5	2018	198.735204860711	98
5	2040	200.362436732704	99
5	2058	201.919284421008	100
5	2073	203.632857059431	101
5	2109	206.837415411839	102
5	2126	208.629574927414	103
5	2148	209.678383610536	104
5	2166	210.840826752101	105
5	2220	216.094177500568	106
5	2238	217.896010523518	107
5	2256	218.996532534157	108
5	2271	220.572589007405	109
5	2310	223.391428270865	110
5	2330	225.837236267404	111
5	2350	228.59434228536	112
5	2364	230.48790748988	113
5	2386	232.383875345972	114
5	2401	233.447818065076	115
5	2422	234.942985713417	116
5	2440	236.41093215791	117
5	2458	238.215250530749	118
5	2476	239.97463594592	119

