version 2
run General-4-20230921-21:31:30-5391
attr configname General
attr datetime 20230921-21:31:30
attr experiment General
attr inifile omnetpp.ini
attr iterationvars ""
attr iterationvarsf ""
attr measurement ""
attr network Network1
attr processid 5391
attr repetition 4
attr replication #4
attr resultdir results
attr runnumber 4
attr seedset 4
param Network1.node[*].transmissionTime "uniform(1s, 2s)"
param Network1.node[*].delayTime "uniform(0.01s, 0.2s)"
param Network1.node[*].processingTime exponential(0.01s)
param Network1.node[*].lossProbability 0.1

vector 0 Network1.node[0] txVector ETV
vector 1 Network1.node[1] txVector ETV
vector 2 Network1.node[3] txVector ETV
vector 3 Network1.node[2] txVector ETV
vector 4 Network1.node[4] txVector ETV
vector 5 Network1.node[5] rxVector ETV
0	1	0.193735669288	0
0	19	2.094357123985	1
0	37	3.727320223502	2
0	55	5.371234486732	3
0	73	7.237117241756	4
0	91	8.417837836002	5
0	109	9.885588189042	6
0	127	10.961294564339	7
0	141	12.808016836098	8
0	159	14.025447125001	9
0	161	15.047065820698	10
0	179	16.567740222127	11
0	197	18.505031702262	12
0	215	20.05040861635	13
0	233	21.553056689133	14
0	251	23.470568497819	15
0	253	25.132870932962	16
0	271	26.716414464559	17
0	273	28.350983958846	18
0	275	29.84277159643	19
0	293	31.774185863944	20
0	311	32.913367663432	21
0	329	34.687339289967	22
0	347	36.564417193798	23
0	365	38.516387614343	24
0	383	39.711335302019	25
0	401	41.458583745095	26
0	403	42.50250625323	27
0	421	43.78775084686	28
0	439	44.813152548312	29
0	457	46.106013308666	30
0	475	47.217887625019	31
0	477	48.671716863676	32
0	495	50.021447961372	33
0	513	51.341812614039	34
0	515	52.697434272072	35
0	533	54.004839159469	36
0	551	55.15233473565	37
0	569	57.033736330844	38
0	587	58.879929230237	39
0	605	59.993286135528	40
0	623	61.235431781891	41
0	641	62.449144840627	42
0	643	63.586672686893	43
0	661	64.743766154317	44
0	679	66.487735643672	45
0	681	68.042775911201	46
0	699	69.383142073095	47
0	717	71.348671382914	48
0	735	72.948203602495	49
0	753	74.117821433038	50
0	771	75.530288312739	51
0	789	77.383101859285	52
0	807	79.230647373401	53
0	825	80.250708954331	54
0	843	81.466169183763	55
0	861	83.324888054203	56
0	863	84.37106209287	57
0	881	85.467912515314	58
0	899	87.331092855349	59
0	917	89.106585423384	60
0	919	90.193915338876	61
0	937	91.965613445422	62
0	955	93.938607626051	63
0	973	95.910179669891	64
0	975	97.024259467764	65
0	993	98.954178750903	66
0	1011	100.254730999392	67
0	1029	101.52192667049	68
0	1047	102.903331656629	69
0	1065	104.179858608093	70
0	1083	105.67122422733	71
0	1101	106.887565601539	72
0	1119	108.473253364829	73
0	1137	110.366601327123	74
0	1155	112.180845719684	75
0	1173	113.68303787002	76
0	1191	115.413891897459	77
0	1193	117.256884600424	78
0	1211	119.239673405808	79
0	1213	121.151010303215	80
0	1215	122.374126671038	81
0	1233	124.171975105924	82
0	1251	125.235972667967	83
0	1269	126.366644991717	84
0	1283	128.261788605635	85
0	1301	129.875642943584	86
0	1303	131.342628948313	87
0	1321	132.93287074465	88
0	1339	134.229889861696	89
0	1357	136.067529890609	90
0	1375	137.787266992654	91
0	1393	139.408477434811	92
0	1399	141.010201106702	93
0	1401	142.441827574668	94
0	1419	144.285227920085	95
0	1437	145.819471517501	96
0	1455	146.910703964687	97
0	1473	148.028159139135	98
0	1491	149.360947704098	99
0	1493	150.399281739413	100
0	1511	152.314280209287	101
0	1529	153.454362363244	102
0	1547	155.24817232384	103
0	1565	156.871279005116	104
0	1583	157.970960090557	105
0	1601	159.563490629583	106
0	1603	161.379845684548	107
0	1605	162.86377663041	108
0	1607	164.667744970336	109
0	1609	165.832645382886	110
0	1627	167.401690974753	111
0	1645	169.120322295386	112
0	1663	170.92025613288	113
0	1681	171.983457938922	114
0	1699	173.950052610753	115
0	1717	175.883097017571	116
0	1735	177.364686540715	117
0	1753	178.455810546331	118
0	1771	179.872561728736	119
0	1773	181.753233340257	120
0	1791	183.510102105946	121
0	1809	184.779530849694	122
0	1827	186.603572794855	123
0	1845	188.519899972169	124
0	1863	190.040780265503	125
0	1881	191.405332178496	126
0	1899	193.044416586556	127
0	1917	194.878221099418	128
0	1935	196.784528828146	129
0	1953	198.424717657421	130
0	1971	199.43744049516	131
0	1989	201.408585040518	132
0	2007	202.431326893079	133
0	2025	204.382930125496	134
0	2043	206.371874633631	135
0	2061	208.150936039783	136
0	2079	209.280336460251	137
0	2097	210.760637735868	138
0	2115	212.182360019455	139
0	2117	213.515131391272	140
0	2135	215.405645369239	141
0	2137	216.49730018169	142
0	2155	217.585122872529	143
0	2173	219.219701734058	144
0	2191	220.458580115962	145
0	2209	221.894319914899	146
0	2227	223.159850438743	147
0	2245	225.000942445978	148
0	2263	226.186225913617	149
0	2281	227.835729231744	150
0	2283	229.384376235924	151
0	2301	230.666110584897	152
0	2319	232.658563127195	153
0	2337	234.119781112451	154
0	2355	235.984228782276	155
0	2373	237.23414144657	156
0	2391	239.159179752147	157
1	3	0.205631491707	0
1	3	0.205631491707	1
1	3	0.205631491707	2
1	21	2.104408849027	3
1	21	2.104408849027	4
1	21	2.104408849027	5
1	39	3.753983592635	6
1	39	3.753983592635	7
1	39	3.753983592635	8
1	57	5.399783276304	9
1	57	5.399783276304	10
1	57	5.399783276304	11
1	75	7.250916914621	12
1	75	7.250916914621	13
1	75	7.250916914621	14
1	93	8.432281450164	15
1	93	8.432281450164	16
1	93	8.432281450164	17
1	111	9.907158706022	18
1	111	9.907158706022	19
1	111	9.907158706022	20
1	129	10.984516166491	21
1	129	10.984516166491	22
1	129	10.984516166491	23
1	143	12.834468344361	24
1	143	12.834468344361	25
1	143	12.834468344361	26
1	163	15.060733256349	27
1	163	15.060733256349	28
1	163	15.060733256349	29
1	181	16.580434082381	30
1	181	16.580434082381	31
1	181	16.580434082381	32
1	199	18.51966963075	33
1	199	18.51966963075	34
1	199	18.51966963075	35
1	217	20.07417185125	36
1	217	20.07417185125	37
1	217	20.07417185125	38
1	235	21.589893536945	39
1	235	21.589893536945	40
1	235	21.589893536945	41
1	255	25.155848751616	42
1	255	25.155848751616	43
1	255	25.155848751616	44
1	277	29.880243743708	45
1	277	29.880243743708	46
1	277	29.880243743708	47
1	295	31.79726271402	48
1	295	31.79726271402	49
1	295	31.79726271402	50
1	313	32.938863265007	51
1	313	32.938863265007	52
1	313	32.938863265007	53
1	331	34.70642147119	54
1	331	34.70642147119	55
1	331	34.70642147119	56
1	349	36.574583403644	57
1	349	36.574583403644	58
1	349	36.574583403644	59
1	367	38.531398617247	60
1	367	38.531398617247	61
1	367	38.531398617247	62
1	385	39.722211603694	63
1	385	39.722211603694	64
1	385	39.722211603694	65
1	405	42.515659719879	66
1	405	42.515659719879	67
1	405	42.515659719879	68
1	423	43.799216783792	69
1	423	43.799216783792	70
1	423	43.799216783792	71
1	441	44.849080199539	72
1	441	44.849080199539	73
1	441	44.849080199539	74
1	459	46.124004503609	75
1	459	46.124004503609	76
1	459	46.124004503609	77
1	479	48.683744392141	78
1	479	48.683744392141	79
1	479	48.683744392141	80
1	497	50.038477105676	81
1	497	50.038477105676	82
1	497	50.038477105676	83
1	517	52.708871499108	84
1	517	52.708871499108	85
1	517	52.708871499108	86
1	535	54.024529991235	87
1	535	54.024529991235	88
1	535	54.024529991235	89
1	553	55.193978553374	90
1	553	55.193978553374	91
1	553	55.193978553374	92
1	571	57.080617111623	93
1	571	57.080617111623	94
1	571	57.080617111623	95
1	589	58.890435058078	96
1	589	58.890435058078	97
1	589	58.890435058078	98
1	607	60.013584633144	99
1	607	60.013584633144	100
1	607	60.013584633144	101
1	625	61.269381251527	102
1	625	61.269381251527	103
1	625	61.269381251527	104
1	645	63.597978899744	105
1	645	63.597978899744	106
1	645	63.597978899744	107
1	663	64.76093023875	108
1	663	64.76093023875	109
1	663	64.76093023875	110
1	683	68.053586614932	111
1	683	68.053586614932	112
1	683	68.053586614932	113
1	701	69.400491387752	114
1	701	69.400491387752	115
1	701	69.400491387752	116
1	719	71.359113833105	117
1	719	71.359113833105	118
1	719	71.359113833105	119
1	737	72.961870064759	120
1	737	72.961870064759	121
1	737	72.961870064759	122
1	755	74.131008242707	123
1	755	74.131008242707	124
1	755	74.131008242707	125
1	773	75.558123333035	126
1	773	75.558123333035	127
1	773	75.558123333035	128
1	791	77.396186082206	129
1	791	77.396186082206	130
1	791	77.396186082206	131
1	809	79.250221677948	132
1	809	79.250221677948	133
1	809	79.250221677948	134
1	827	80.263344698167	135
1	827	80.263344698167	136
1	827	80.263344698167	137
1	845	81.477242425022	138
1	845	81.477242425022	139
1	845	81.477242425022	140
1	865	84.387680283683	141
1	865	84.387680283683	142
1	865	84.387680283683	143
1	883	85.478252498396	144
1	883	85.478252498396	145
1	883	85.478252498396	146
1	901	87.34159886601	147
1	901	87.34159886601	148
1	901	87.34159886601	149
1	921	90.218790072016	150
1	921	90.218790072016	151
1	921	90.218790072016	152
1	939	91.981025776405	153
1	939	91.981025776405	154
1	939	91.981025776405	155
1	957	93.950756068448	156
1	957	93.950756068448	157
1	957	93.950756068448	158
1	977	97.040525201017	159
1	977	97.040525201017	160
1	977	97.040525201017	161
1	995	98.982847018621	162
1	995	98.982847018621	163
1	995	98.982847018621	164
1	1013	100.267571802919	165
1	1013	100.267571802919	166
1	1013	100.267571802919	167
1	1031	101.586627219733	168
1	1031	101.586627219733	169
1	1031	101.586627219733	170
1	1049	102.918630055018	171
1	1049	102.918630055018	172
1	1049	102.918630055018	173
1	1067	104.201467078716	174
1	1067	104.201467078716	175
1	1067	104.201467078716	176
1	1085	105.686126267172	177
1	1085	105.686126267172	178
1	1085	105.686126267172	179
1	1103	106.898943296515	180
1	1103	106.898943296515	181
1	1103	106.898943296515	182
1	1121	108.515376459868	183
1	1121	108.515376459868	184
1	1121	108.515376459868	185
1	1139	110.419961996114	186
1	1139	110.419961996114	187
1	1139	110.419961996114	188
1	1157	112.203726237329	189
1	1157	112.203726237329	190
1	1157	112.203726237329	191
1	1175	113.706989761729	192
1	1175	113.706989761729	193
1	1175	113.706989761729	194
1	1195	117.268867221908	195
1	1195	117.268867221908	196
1	1195	117.268867221908	197
1	1217	122.387558362691	198
1	1217	122.387558362691	199
1	1217	122.387558362691	200
1	1235	124.184822206839	201
1	1235	124.184822206839	202
1	1235	124.184822206839	203
1	1253	125.262292928998	204
1	1253	125.262292928998	205
1	1253	125.262292928998	206
1	1271	126.387639520381	207
1	1271	126.387639520381	208
1	1271	126.387639520381	209
1	1285	128.273208468675	210
1	1285	128.273208468675	211
1	1285	128.273208468675	212
1	1305	131.366801546656	213
1	1305	131.366801546656	214
1	1305	131.366801546656	215
1	1323	132.943515930997	216
1	1323	132.943515930997	217
1	1323	132.943515930997	218
1	1341	134.268859840179	219
1	1341	134.268859840179	220
1	1341	134.268859840179	221
1	1359	136.089997096331	222
1	1359	136.089997096331	223
1	1359	136.089997096331	224
1	1377	137.80878692014	225
1	1377	137.80878692014	226
1	1377	137.80878692014	227
1	1395	139.427210735837	228
1	1395	139.427210735837	229
1	1395	139.427210735837	230
1	1403	142.4533022638	231
1	1403	142.4533022638	232
1	1403	142.4533022638	233
1	1421	144.29577355449	234
1	1421	144.29577355449	235
1	1421	144.29577355449	236
1	1439	145.845752153252	237
1	1439	145.845752153252	238
1	1439	145.845752153252	239
1	1457	146.935215070071	240
1	1457	146.935215070071	241
1	1457	146.935215070071	242
1	1475	148.067061677208	243
1	1475	148.067061677208	244
1	1475	148.067061677208	245
1	1495	150.410579586009	246
1	1495	150.410579586009	247
1	1495	150.410579586009	248
1	1513	152.337869423794	249
1	1513	152.337869423794	250
1	1513	152.337869423794	251
1	1531	153.489171092199	252
1	1531	153.489171092199	253
1	1531	153.489171092199	254
1	1549	155.270809031902	255
1	1549	155.270809031902	256
1	1549	155.270809031902	257
1	1567	156.889489772661	258
1	1567	156.889489772661	259
1	1567	156.889489772661	260
1	1585	157.984547764751	261
1	1585	157.984547764751	262
1	1585	157.984547764751	263
1	1611	165.861231495161	264
1	1611	165.861231495161	265
1	1611	165.861231495161	266
1	1629	167.4119488673	267
1	1629	167.4119488673	268
1	1629	167.4119488673	269
1	1647	169.145883475053	270
1	1647	169.145883475053	271
1	1647	169.145883475053	272
1	1665	170.958556580007	273
1	1665	170.958556580007	274
1	1665	170.958556580007	275
1	1683	171.996174440562	276
1	1683	171.996174440562	277
1	1683	171.996174440562	278
1	1701	173.974706476779	279
1	1701	173.974706476779	280
1	1701	173.974706476779	281
1	1719	175.895549116435	282
1	1719	175.895549116435	283
1	1719	175.895549116435	284
1	1737	177.391829587661	285
1	1737	177.391829587661	286
1	1737	177.391829587661	287
1	1755	178.468897700732	288
1	1755	178.468897700732	289
1	1755	178.468897700732	290
1	1775	181.769026125669	291
1	1775	181.769026125669	292
1	1775	181.769026125669	293
1	1793	183.521355261798	294
1	1793	183.521355261798	295
1	1793	183.521355261798	296
1	1811	184.799502727039	297
1	1811	184.799502727039	298
1	1811	184.799502727039	299
1	1829	186.618983572322	300
1	1829	186.618983572322	301
1	1829	186.618983572322	302
1	1847	188.531987333372	303
1	1847	188.531987333372	304
1	1847	188.531987333372	305
1	1865	190.08897344124	306
1	1865	190.08897344124	307
1	1865	190.08897344124	308
1	1883	191.421481570743	309
1	1883	191.421481570743	310
1	1883	191.421481570743	311
1	1901	193.064655106275	312
1	1901	193.064655106275	313
1	1901	193.064655106275	314
1	1919	194.894878642894	315
1	1919	194.894878642894	316
1	1919	194.894878642894	317
1	1937	196.799047143213	318
1	1937	196.799047143213	319
1	1937	196.799047143213	320
1	1955	198.442207280623	321
1	1955	198.442207280623	322
1	1955	198.442207280623	323
1	1973	199.44811546289	324
1	1973	199.44811546289	325
1	1973	199.44811546289	326
1	1991	201.432511710719	327
1	1991	201.432511710719	328
1	1991	201.432511710719	329
1	2009	202.449972507808	330
1	2009	202.449972507808	331
1	2009	202.449972507808	332
1	2027	204.400162566735	333
1	2027	204.400162566735	334
1	2027	204.400162566735	335
1	2045	206.381953155496	336
1	2045	206.381953155496	337
1	2045	206.381953155496	338
1	2063	208.16837803003	339
1	2063	208.16837803003	340
1	2063	208.16837803003	341
1	2081	209.303797777231	342
1	2081	209.303797777231	343
1	2081	209.303797777231	344
1	2099	210.781575402888	345
1	2099	210.781575402888	346
1	2099	210.781575402888	347
1	2119	213.549679210461	348
1	2119	213.549679210461	349
1	2119	213.549679210461	350
1	2139	216.520245750344	351
1	2139	216.520245750344	352
1	2139	216.520245750344	353
1	2157	217.614700315861	354
1	2157	217.614700315861	355
1	2157	217.614700315861	356
1	2175	219.313097770064	357
1	2175	219.313097770064	358
1	2175	219.313097770064	359
1	2193	220.502558964836	360
1	2193	220.502558964836	361
1	2193	220.502558964836	362
1	2211	221.909667578083	363
1	2211	221.909667578083	364
1	2211	221.909667578083	365
1	2229	223.198750321424	366
1	2229	223.198750321424	367
1	2229	223.198750321424	368
1	2247	225.011863003191	369
1	2247	225.011863003191	370
1	2247	225.011863003191	371
1	2265	226.198666320626	372
1	2265	226.198666320626	373
1	2265	226.198666320626	374
1	2285	229.410294224021	375
1	2285	229.410294224021	376
1	2285	229.410294224021	377
1	2303	230.683057456984	378
1	2303	230.683057456984	379
1	2303	230.683057456984	380
1	2321	232.721909280507	381
1	2321	232.721909280507	382
1	2321	232.721909280507	383
1	2339	234.13669467643	384
1	2339	234.13669467643	385
1	2339	234.13669467643	386
1	2357	236.012739548685	387
1	2357	236.012739548685	388
1	2357	236.012739548685	389
1	2375	237.29268872567	390
1	2375	237.29268872567	391
1	2375	237.29268872567	392
1	2393	239.189298547209	393
1	2393	239.189298547209	394
1	2393	239.189298547209	395
2	7	0.227595799025	0
2	7	0.227595799025	1
2	7	0.227595799025	2
2	30	2.155392780518	3
2	30	2.155392780518	4
2	30	2.155392780518	5
2	43	3.764389524947	6
2	43	3.764389524947	7
2	43	3.764389524947	8
2	66	5.437520623682	9
2	66	5.437520623682	10
2	66	5.437520623682	11
2	79	7.265973637265	12
2	79	7.265973637265	13
2	79	7.265973637265	14
2	97	8.445197141124	15
2	97	8.445197141124	16
2	97	8.445197141124	17
2	119	9.934889345122	18
2	119	9.934889345122	19
2	119	9.934889345122	20
2	133	10.995400781085	21
2	133	10.995400781085	22
2	133	10.995400781085	23
2	151	12.865104016346	24
2	151	12.865104016346	25
2	151	12.865104016346	26
2	168	15.079211201626	27
2	168	15.079211201626	28
2	168	15.079211201626	29
2	190	16.610516454124	30
2	190	16.610516454124	31
2	190	16.610516454124	32
2	204	18.535100261884	33
2	204	18.535100261884	34
2	204	18.535100261884	35
2	225	20.099764605682	36
2	225	20.099764605682	37
2	225	20.099764605682	38
2	239	21.602066452897	39
2	239	21.602066452897	40
2	239	21.602066452897	41
2	263	25.192385294083	42
2	263	25.192385294083	43
2	263	25.192385294083	44
2	282	29.905454860847	45
2	282	29.905454860847	46
2	282	29.905454860847	47
2	299	31.808027771128	48
2	299	31.808027771128	49
2	299	31.808027771128	50
2	318	32.954742863705	51
2	318	32.954742863705	52
2	318	32.954742863705	53
2	335	34.717330740931	54
2	335	34.717330740931	55
2	335	34.717330740931	56
2	354	36.588625490084	57
2	354	36.588625490084	58
2	354	36.588625490084	59
2	379	38.584376124672	60
2	379	38.584376124672	61
2	379	38.584376124672	62
2	390	39.745584816378	63
2	390	39.745584816378	64
2	390	39.745584816378	65
2	409	42.52881183518	66
2	409	42.52881183518	67
2	409	42.52881183518	68
2	431	43.840055665487	69
2	431	43.840055665487	70
2	431	43.840055665487	71
2	445	44.872417228886	72
2	445	44.872417228886	73
2	445	44.872417228886	74
2	463	46.137281958269	75
2	463	46.137281958269	76
2	463	46.137281958269	77
2	484	48.703854088642	78
2	484	48.703854088642	79
2	484	48.703854088642	80
2	501	50.058481727293	81
2	501	50.058481727293	82
2	501	50.058481727293	83
2	522	52.724423067243	84
2	522	52.724423067243	85
2	522	52.724423067243	86
2	539	54.05747857886	87
2	539	54.05747857886	88
2	539	54.05747857886	89
2	557	55.221934836304	90
2	557	55.221934836304	91
2	557	55.221934836304	92
2	575	57.091932064951	93
2	575	57.091932064951	94
2	575	57.091932064951	95
2	594	58.904928947736	96
2	594	58.904928947736	97
2	594	58.904928947736	98
2	612	60.028697418721	99
2	612	60.028697418721	100
2	612	60.028697418721	101
2	630	61.287654521941	102
2	630	61.287654521941	103
2	630	61.287654521941	104
2	649	63.608635356406	105
2	649	63.608635356406	106
2	649	63.608635356406	107
2	672	64.789608381279	108
2	672	64.789608381279	109
2	672	64.789608381279	110
2	687	68.067034280848	111
2	687	68.067034280848	112
2	687	68.067034280848	113
2	705	69.411260008609	114
2	705	69.411260008609	115
2	705	69.411260008609	116
2	723	71.37600604028	117
2	723	71.37600604028	118
2	723	71.37600604028	119
2	745	72.988140789741	120
2	745	72.988140789741	121
2	745	72.988140789741	122
2	760	74.161595536606	123
2	760	74.161595536606	124
2	760	74.161595536606	125
2	778	75.576799850636	126
2	778	75.576799850636	127
2	778	75.576799850636	128
2	799	77.434504802107	129
2	799	77.434504802107	130
2	799	77.434504802107	131
2	813	79.271005606294	132
2	813	79.271005606294	133
2	813	79.271005606294	134
2	835	80.290422419865	135
2	835	80.290422419865	136
2	835	80.290422419865	137
2	850	81.500616768951	138
2	850	81.500616768951	139
2	850	81.500616768951	140
2	869	84.420125871754	141
2	869	84.420125871754	142
2	869	84.420125871754	143
2	888	85.502691396216	144
2	888	85.502691396216	145
2	888	85.502691396216	146
2	906	87.367672344309	147
2	906	87.367672344309	148
2	906	87.367672344309	149
2	925	90.232360840398	150
2	925	90.232360840398	151
2	925	90.232360840398	152
2	947	92.007637419194	153
2	947	92.007637419194	154
2	947	92.007637419194	155
2	961	93.966965015513	156
2	961	93.966965015513	157
2	961	93.966965015513	158
2	981	97.052213786581	159
2	981	97.052213786581	160
2	981	97.052213786581	161
2	1000	99.014017907301	162
2	1000	99.014017907301	163
2	1000	99.014017907301	164
2	1017	100.283643018994	165
2	1017	100.283643018994	166
2	1017	100.283643018994	167
2	1036	101.601349290196	168
2	1036	101.601349290196	169
2	1036	101.601349290196	170
2	1054	102.934474052924	171
2	1054	102.934474052924	172
2	1054	102.934474052924	173
2	1072	104.229568957103	174
2	1072	104.229568957103	175
2	1072	104.229568957103	176
2	1089	105.697727785445	177
2	1089	105.697727785445	178
2	1089	105.697727785445	179
2	1107	106.914649189928	180
2	1107	106.914649189928	181
2	1107	106.914649189928	182
2	1125	108.525686948161	183
2	1125	108.525686948161	184
2	1125	108.525686948161	185
2	1151	110.467327249185	186
2	1151	110.467327249185	187
2	1151	110.467327249185	188
2	1162	112.232390294296	189
2	1162	112.232390294296	190
2	1162	112.232390294296	191
2	1179	113.718282429974	192
2	1179	113.718282429974	193
2	1179	113.718282429974	194
2	1199	117.281855444602	195
2	1199	117.281855444602	196
2	1199	117.281855444602	197
2	1222	122.398460929905	198
2	1222	122.398460929905	199
2	1222	122.398460929905	200
2	1239	124.195543563283	201
2	1239	124.195543563283	202
2	1239	124.195543563283	203
2	1265	125.318885173518	204
2	1265	125.318885173518	205
2	1265	125.318885173518	206
2	1276	126.399821651767	207
2	1276	126.399821651767	208
2	1276	126.399821651767	209
2	1289	128.284508571464	210
2	1289	128.284508571464	211
2	1289	128.284508571464	212
2	1309	131.396555475208	213
2	1309	131.396555475208	214
2	1309	131.396555475208	215
2	1327	132.95401727145	216
2	1327	132.95401727145	217
2	1327	132.95401727145	218
2	1345	134.282950037517	219
2	1345	134.282950037517	220
2	1345	134.282950037517	221
2	1363	136.109331477257	222
2	1363	136.109331477257	223
2	1363	136.109331477257	224
2	1382	137.828282614595	225
2	1382	137.828282614595	226
2	1382	137.828282614595	227
2	1407	142.478997495098	228
2	1407	142.478997495098	229
2	1407	142.478997495098	230
2	1425	144.310816735583	231
2	1425	144.310816735583	232
2	1425	144.310816735583	233
2	1443	145.858455213456	234
2	1443	145.858455213456	235
2	1443	145.858455213456	236
2	1461	146.970946903113	237
2	1461	146.970946903113	238
2	1461	146.970946903113	239
2	1479	148.078129822948	240
2	1479	148.078129822948	241
2	1479	148.078129822948	242
2	1499	150.425567167312	243
2	1499	150.425567167312	244
2	1499	150.425567167312	245
2	1517	152.349093007212	246
2	1517	152.349093007212	247
2	1517	152.349093007212	248
2	1535	153.503151587904	249
2	1535	153.503151587904	250
2	1535	153.503151587904	251
2	1553	155.282715172143	252
2	1553	155.282715172143	253
2	1553	155.282715172143	254
2	1571	156.901788102859	255
2	1571	156.901788102859	256
2	1571	156.901788102859	257
2	1589	157.998427091264	258
2	1589	157.998427091264	259
2	1589	157.998427091264	260
2	1615	165.87652404754	261
2	1615	165.87652404754	262
2	1615	165.87652404754	263
2	1634	167.427176048064	264
2	1634	167.427176048064	265
2	1634	167.427176048064	266
2	1651	169.160204172548	267
2	1651	169.160204172548	268
2	1651	169.160204172548	269
2	1669	170.972233615972	270
2	1669	170.972233615972	271
2	1669	170.972233615972	272
2	1687	172.012787771925	273
2	1687	172.012787771925	274
2	1687	172.012787771925	275
2	1710	174.009993469009	276
2	1710	174.009993469009	277
2	1710	174.009993469009	278
2	1727	175.918298694804	279
2	1727	175.918298694804	280
2	1727	175.918298694804	281
2	1741	177.414343676006	282
2	1741	177.414343676006	283
2	1741	177.414343676006	284
2	1759	178.488232753373	285
2	1759	178.488232753373	286
2	1759	178.488232753373	287
2	1779	181.791524470555	288
2	1779	181.791524470555	289
2	1779	181.791524470555	290
2	1801	183.559280745093	291
2	1801	183.559280745093	292
2	1801	183.559280745093	293
2	1815	184.813327011711	294
2	1815	184.813327011711	295
2	1815	184.813327011711	296
2	1833	186.629977371183	297
2	1833	186.629977371183	298
2	1833	186.629977371183	299
2	1852	188.554653150057	300
2	1852	188.554653150057	301
2	1852	188.554653150057	302
2	1869	190.100797010696	303
2	1869	190.100797010696	304
2	1869	190.100797010696	305
2	1887	191.432820363751	306
2	1887	191.432820363751	307
2	1887	191.432820363751	308
2	1905	193.095921290111	309
2	1905	193.095921290111	310
2	1905	193.095921290111	311
2	1923	194.905336138447	312
2	1923	194.905336138447	313
2	1923	194.905336138447	314
2	1941	196.811709498183	315
2	1941	196.811709498183	316
2	1941	196.811709498183	317
2	1960	198.456398931694	318
2	1960	198.456398931694	319
2	1960	198.456398931694	320
2	1977	199.46177345871	321
2	1977	199.46177345871	322
2	1977	199.46177345871	323
2	1995	201.444934267872	324
2	1995	201.444934267872	325
2	1995	201.444934267872	326
2	2021	202.511232541004	327
2	2021	202.511232541004	328
2	2021	202.511232541004	329
2	2032	204.421387348255	330
2	2032	204.421387348255	331
2	2032	204.421387348255	332
2	2049	206.401649715145	333
2	2049	206.401649715145	334
2	2049	206.401649715145	335
2	2067	208.184993801442	336
2	2067	208.184993801442	337
2	2067	208.184993801442	338
2	2085	209.323161733028	339
2	2085	209.323161733028	340
2	2085	209.323161733028	341
2	2103	210.799494331089	342
2	2103	210.799494331089	343
2	2103	210.799494331089	344
2	2123	213.565074259939	345
2	2123	213.565074259939	346
2	2123	213.565074259939	347
2	2143	216.530393121679	348
2	2143	216.530393121679	349
2	2143	216.530393121679	350
2	2161	217.636676751365	351
2	2161	217.636676751365	352
2	2161	217.636676751365	353
2	2179	219.333517921428	354
2	2179	219.333517921428	355
2	2179	219.333517921428	356
2	2205	220.571812647028	357
2	2205	220.571812647028	358
2	2205	220.571812647028	359
2	2216	221.923129502605	360
2	2216	221.923129502605	361
2	2216	221.923129502605	362
2	2237	223.224371064012	363
2	2237	223.224371064012	364
2	2237	223.224371064012	365
2	2251	225.035718105068	366
2	2251	225.035718105068	367
2	2251	225.035718105068	368
2	2270	226.238223635703	369
2	2270	226.238223635703	370
2	2270	226.238223635703	371
2	2294	229.442772037186	372
2	2294	229.442772037186	373
2	2294	229.442772037186	374
2	2307	230.697053065613	375
2	2307	230.697053065613	376
2	2307	230.697053065613	377
2	2325	232.732149911742	378
2	2325	232.732149911742	379
2	2325	232.732149911742	380
2	2344	234.161011821793	381
2	2344	234.161011821793	382
2	2344	234.161011821793	383
2	2361	236.023495328021	384
2	2361	236.023495328021	385
2	2361	236.023495328021	386
2	2379	237.304695140538	387
2	2379	237.304695140538	388
2	2379	237.304695140538	389
2	2397	239.205468195408	390
2	2397	239.205468195408	391
2	2397	239.205468195408	392
3	8	0.228177698444	0
3	8	0.228177698444	1
3	8	0.228177698444	2
3	25	2.134286098792	3
3	25	2.134286098792	4
3	25	2.134286098792	5
3	51	3.794510292413	6
3	51	3.794510292413	7
3	51	3.794510292413	8
3	61	5.417289107733	9
3	61	5.417289107733	10
3	61	5.417289107733	11
3	80	7.271409569222	12
3	80	7.271409569222	13
3	80	7.271409569222	14
3	105	8.494399059957	15
3	105	8.494399059957	16
3	105	8.494399059957	17
3	115	9.922811912617	18
3	115	9.922811912617	19
3	115	9.922811912617	20
3	134	11.003571853608	21
3	134	11.003571853608	22
3	134	11.003571853608	23
3	147	12.853720738637	24
3	147	12.853720738637	25
3	147	12.853720738637	26
3	167	15.077962182464	27
3	167	15.077962182464	28
3	167	15.077962182464	29
3	185	16.594968350975	30
3	185	16.594968350975	31
3	185	16.594968350975	32
3	203	18.534987948119	33
3	203	18.534987948119	34
3	203	18.534987948119	35
3	221	20.088440546892	36
3	221	20.088440546892	37
3	221	20.088440546892	38
3	243	21.62646313627	39
3	243	21.62646313627	40
3	243	21.62646313627	41
3	259	25.176563139287	42
3	259	25.176563139287	43
3	259	25.176563139287	44
3	281	29.895479841588	45
3	281	29.895479841588	46
3	281	29.895479841588	47
3	307	31.854144772786	48
3	307	31.854144772786	49
3	307	31.854144772786	50
3	317	32.953017304671	51
3	317	32.953017304671	52
3	317	32.953017304671	53
3	339	34.732900605561	54
3	339	34.732900605561	55
3	339	34.732900605561	56
3	353	36.587088306064	57
3	353	36.587088306064	58
3	353	36.587088306064	59
3	371	38.547288745003	60
3	371	38.547288745003	61
3	371	38.547288745003	62
3	389	39.73745379063	63
3	389	39.73745379063	64
3	389	39.73745379063	65
3	410	42.530656050285	66
3	410	42.530656050285	67
3	410	42.530656050285	68
3	427	43.813866287356	69
3	427	43.813866287356	70
3	427	43.813866287356	71
3	449	44.896337826234	72
3	449	44.896337826234	73
3	449	44.896337826234	74
3	464	46.14261382232	75
3	464	46.14261382232	76
3	464	46.14261382232	77
3	483	48.702123092472	78
3	483	48.702123092472	79
3	483	48.702123092472	80
3	509	50.09043721956	81
3	509	50.09043721956	82
3	509	50.09043721956	83
3	521	52.721469495615	84
3	521	52.721469495615	85
3	521	52.721469495615	86
3	543	54.071868848925	87
3	543	54.071868848925	88
3	543	54.071868848925	89
3	558	55.223631205314	90
3	558	55.223631205314	91
3	558	55.223631205314	92
3	579	57.107132725549	93
3	579	57.107132725549	94
3	579	57.107132725549	95
3	593	58.902077783316	96
3	593	58.902077783316	97
3	593	58.902077783316	98
3	611	60.026774244218	99
3	611	60.026774244218	100
3	611	60.026774244218	101
3	629	61.279655995433	102
3	629	61.279655995433	103
3	629	61.279655995433	104
3	650	63.611614682756	105
3	650	63.611614682756	106
3	650	63.611614682756	107
3	667	64.772697661052	108
3	667	64.772697661052	109
3	667	64.772697661052	110
3	692	68.085022634513	111
3	692	68.085022634513	112
3	692	68.085022634513	113
3	706	69.41648445463	114
3	706	69.41648445463	115
3	706	69.41648445463	116
3	727	71.38829886502	117
3	727	71.38829886502	118
3	727	71.38829886502	119
3	741	72.976542743757	120
3	741	72.976542743757	121
3	741	72.976542743757	122
3	759	74.156236464559	123
3	759	74.156236464559	124
3	759	74.156236464559	125
3	777	75.575108257135	126
3	777	75.575108257135	127
3	777	75.575108257135	128
3	795	77.420104517513	129
3	795	77.420104517513	130
3	795	77.420104517513	131
3	817	79.291546816611	132
3	817	79.291546816611	133
3	817	79.291546816611	134
3	831	80.274633620015	135
3	831	80.274633620015	136
3	831	80.274633620015	137
3	849	81.497382897088	138
3	849	81.497382897088	139
3	849	81.497382897088	140
3	877	84.443890178586	141
3	877	84.443890178586	142
3	877	84.443890178586	143
3	887	85.495081887386	144
3	887	85.495081887386	145
3	887	85.495081887386	146
3	905	87.363148433827	147
3	905	87.363148433827	148
3	905	87.363148433827	149
3	926	90.237334975711	150
3	926	90.237334975711	151
3	926	90.237334975711	152
3	943	91.994461182536	153
3	943	91.994461182536	154
3	943	91.994461182536	155
3	965	93.982424197123	156
3	965	93.982424197123	157
3	965	93.982424197123	158
3	982	97.053891918367	159
3	982	97.053891918367	160
3	982	97.053891918367	161
3	999	99.007167702706	162
3	999	99.007167702706	163
3	999	99.007167702706	164
3	1021	100.299920976728	165
3	1021	100.299920976728	166
3	1021	100.299920976728	167
3	1035	101.597275291299	168
3	1035	101.597275291299	169
3	1035	101.597275291299	170
3	1053	102.928704220332	171
3	1053	102.928704220332	172
3	1053	102.928704220332	173
3	1071	104.227096540849	174
3	1071	104.227096540849	175
3	1071	104.227096540849	176
3	1090	105.704235000689	177
3	1090	105.704235000689	178
3	1090	105.704235000689	179
3	1115	106.947257609751	180
3	1115	106.947257609751	181
3	1115	106.947257609751	182
3	1129	108.582429811009	183
3	1129	108.582429811009	184
3	1129	108.582429811009	185
3	1143	110.444583483195	186
3	1143	110.444583483195	187
3	1143	110.444583483195	188
3	1161	112.225713702394	189
3	1161	112.225713702394	190
3	1161	112.225713702394	191
3	1180	113.726386981619	192
3	1180	113.726386981619	193
3	1180	113.726386981619	194
3	1207	117.324739794576	195
3	1207	117.324739794576	196
3	1207	117.324739794576	197
3	1221	122.398292008104	198
3	1221	122.398292008104	199
3	1221	122.398292008104	200
3	1240	124.197012080245	201
3	1240	124.197012080245	202
3	1240	124.197012080245	203
3	1257	125.275920811274	204
3	1257	125.275920811274	205
3	1257	125.275920811274	206
3	1275	126.398980396991	207
3	1275	126.398980396991	208
3	1275	126.398980396991	209
3	1290	128.294351388651	210
3	1290	128.294351388651	211
3	1290	128.294351388651	212
3	1317	131.426516987569	213
3	1317	131.426516987569	214
3	1317	131.426516987569	215
3	1328	132.957160217654	216
3	1328	132.957160217654	217
3	1328	132.957160217654	218
3	1346	134.283950682656	219
3	1346	134.283950682656	220
3	1346	134.283950682656	221
3	1371	136.139048250386	222
3	1371	136.139048250386	223
3	1371	136.139048250386	224
3	1381	137.819286227165	225
3	1381	137.819286227165	226
3	1381	137.819286227165	227
3	1412	142.492501474332	228
3	1412	142.492501474332	229
3	1412	142.492501474332	230
3	1426	144.31561247454	231
3	1426	144.31561247454	232
3	1426	144.31561247454	233
3	1444	145.863062199769	234
3	1444	145.863062199769	235
3	1444	145.863062199769	236
3	1465	146.981713695247	237
3	1465	146.981713695247	238
3	1465	146.981713695247	239
3	1480	148.080783656548	240
3	1480	148.080783656548	241
3	1480	148.080783656548	242
3	1500	150.430148692778	243
3	1500	150.430148692778	244
3	1500	150.430148692778	245
3	1518	152.35311306259	246
3	1518	152.35311306259	247
3	1518	152.35311306259	248
3	1536	153.51077942598	249
3	1536	153.51077942598	250
3	1536	153.51077942598	251
3	1554	155.283139862821	252
3	1554	155.283139862821	253
3	1554	155.283139862821	254
3	1572	156.903226660355	255
3	1572	156.903226660355	256
3	1572	156.903226660355	257
3	1590	157.999865456812	258
3	1590	157.999865456812	259
3	1590	157.999865456812	260
3	1619	165.900026563281	261
3	1619	165.900026563281	262
3	1619	165.900026563281	263
3	1633	167.423207561809	264
3	1633	167.423207561809	265
3	1633	167.423207561809	266
3	1655	169.173397352061	267
3	1655	169.173397352061	268
3	1655	169.173397352061	269
3	1673	170.985385830487	270
3	1673	170.985385830487	271
3	1673	170.985385830487	272
3	1688	172.016068007756	273
3	1688	172.016068007756	274
3	1688	172.016068007756	275
3	1705	173.986394290074	276
3	1705	173.986394290074	277
3	1705	173.986394290074	278
3	1723	175.905974814755	279
3	1723	175.905974814755	280
3	1723	175.905974814755	281
3	1745	177.425400765574	282
3	1745	177.425400765574	283
3	1745	177.425400765574	284
3	1760	178.491571907609	285
3	1760	178.491571907609	286
3	1760	178.491571907609	287
3	1783	181.805885326315	288
3	1783	181.805885326315	289
3	1783	181.805885326315	290
3	1797	183.547329312853	291
3	1797	183.547329312853	292
3	1797	183.547329312853	293
3	1820	184.841237363565	294
3	1820	184.841237363565	295
3	1820	184.841237363565	296
3	1834	186.637049912825	297
3	1834	186.637049912825	298
3	1834	186.637049912825	299
3	1851	188.551812693472	300
3	1851	188.551812693472	301
3	1851	188.551812693472	302
3	1874	190.116763548892	303
3	1874	190.116763548892	304
3	1874	190.116763548892	305
3	1895	191.475960276175	306
3	1895	191.475960276175	307
3	1895	191.475960276175	308
3	1906	193.096776156968	309
3	1906	193.096776156968	310
3	1906	193.096776156968	311
3	1924	194.906755189727	312
3	1924	194.906755189727	313
3	1924	194.906755189727	314
3	1946	196.831940881709	315
3	1946	196.831940881709	316
3	1946	196.831940881709	317
3	1959	198.455198865417	318
3	1959	198.455198865417	319
3	1959	198.455198865417	320
3	1978	199.462411312733	321
3	1978	199.462411312733	322
3	1978	199.462411312733	323
3	1999	201.4628524434	324
3	1999	201.4628524434	325
3	1999	201.4628524434	326
3	2013	202.478603918823	327
3	2013	202.478603918823	328
3	2013	202.478603918823	329
3	2031	204.411480145137	330
3	2031	204.411480145137	331
3	2031	204.411480145137	332
3	2053	206.419359617137	333
3	2053	206.419359617137	334
3	2053	206.419359617137	335
3	2068	208.186197415339	336
3	2068	208.186197415339	337
3	2068	208.186197415339	338
3	2086	209.326936504826	339
3	2086	209.326936504826	340
3	2086	209.326936504826	341
3	2104	210.807847394251	342
3	2104	210.807847394251	343
3	2104	210.807847394251	344
3	2127	213.577084627398	345
3	2127	213.577084627398	346
3	2127	213.577084627398	347
3	2144	216.536625483366	348
3	2144	216.536625483366	349
3	2144	216.536625483366	350
3	2162	217.638598484081	351
3	2162	217.638598484081	352
3	2162	217.638598484081	353
3	2187	219.374956716645	354
3	2187	219.374956716645	355
3	2187	219.374956716645	356
3	2197	220.52141758001	357
3	2197	220.52141758001	358
3	2197	220.52141758001	359
3	2215	221.92301089612	360
3	2215	221.92301089612	361
3	2215	221.92301089612	362
3	2233	223.213663069123	363
3	2233	223.213663069123	364
3	2233	223.213663069123	365
3	2259	225.073228905751	366
3	2259	225.073228905751	367
3	2259	225.073228905751	368
3	2269	226.231255429853	369
3	2269	226.231255429853	370
3	2269	226.231255429853	371
3	2289	229.424174361667	372
3	2289	229.424174361667	373
3	2289	229.424174361667	374
3	2311	230.716374137284	375
3	2311	230.716374137284	376
3	2311	230.716374137284	377
3	2333	232.760374143731	378
3	2333	232.760374143731	379
3	2333	232.760374143731	380
3	2343	234.158859406623	381
3	2343	234.158859406623	382
3	2343	234.158859406623	383
3	2362	236.026625243137	384
3	2362	236.026625243137	385
3	2362	236.026625243137	386
3	2380	237.306204677498	387
3	2380	237.306204677498	388
3	2380	237.306204677498	389
3	2401	239.218094374765	390
3	2401	239.218094374765	391
3	2401	239.218094374765	392
4	15	0.275007828545	0
4	15	0.275007828545	1
4	15	0.275007828545	2
4	29	2.149258058031	3
4	29	2.149258058031	4
4	29	2.149258058031	5
4	47	3.776291031235	6
4	47	3.776291031235	7
4	47	3.776291031235	8
4	65	5.430313303498	9
4	65	5.430313303498	10
4	65	5.430313303498	11
4	87	7.290558201228	12
4	87	7.290558201228	13
4	87	7.290558201228	14
4	101	8.481705335118	15
4	101	8.481705335118	16
4	101	8.481705335118	17
4	120	9.944790680341	18
4	120	9.944790680341	19
4	120	9.944790680341	20
4	152	12.871487651352	21
4	152	12.871487651352	22
4	152	12.871487651352	23
4	175	15.105748765087	24
4	175	15.105748765087	25
4	175	15.105748765087	26
4	189	16.606629230378	27
4	189	16.606629230378	28
4	189	16.606629230378	29
4	211	18.547135227217	30
4	211	18.547135227217	31
4	211	18.547135227217	32
4	226	20.107903455048	33
4	226	20.107903455048	34
4	226	20.107903455048	35
4	247	21.676207400839	36
4	247	21.676207400839	37
4	247	21.676207400839	38
4	264	25.197546014646	39
4	264	25.197546014646	40
4	264	25.197546014646	41
4	286	29.91273182903	42
4	286	29.91273182903	43
4	286	29.91273182903	44
4	303	31.831500228338	45
4	303	31.831500228338	46
4	303	31.831500228338	47
4	325	32.966507668854	48
4	325	32.966507668854	49
4	325	32.966507668854	50
4	340	34.735474448857	51
4	340	34.735474448857	52
4	340	34.735474448857	53
4	358	36.597289744989	54
4	358	36.597289744989	55
4	358	36.597289744989	56
4	375	38.566751409294	57
4	375	38.566751409294	58
4	375	38.566751409294	59
4	397	39.776911244254	60
4	397	39.776911244254	61
4	397	39.776911244254	62
4	417	42.5449171758	63
4	417	42.5449171758	64
4	417	42.5449171758	65
4	435	43.857553145687	66
4	435	43.857553145687	67
4	435	43.857553145687	68
4	453	44.91036867682	69
4	453	44.91036867682	70
4	453	44.91036867682	71
4	468	46.149919728508	72
4	468	46.149919728508	73
4	468	46.149919728508	74
4	491	48.715559831482	75
4	491	48.715559831482	76
4	491	48.715559831482	77
4	505	50.073329207871	78
4	505	50.073329207871	79
4	505	50.073329207871	80
4	529	52.74457080723	81
4	529	52.74457080723	82
4	529	52.74457080723	83
4	547	54.084680176559	84
4	547	54.084680176559	85
4	547	54.084680176559	86
4	565	55.234043651693	87
4	565	55.234043651693	88
4	565	55.234043651693	89
4	580	57.113235179365	90
4	580	57.113235179365	91
4	580	57.113235179365	92
4	601	58.951419210552	93
4	601	58.951419210552	94
4	601	58.951419210552	95
4	616	60.036787812132	96
4	616	60.036787812132	97
4	616	60.036787812132	98
4	637	61.306763066397	99
4	637	61.306763066397	100
4	637	61.306763066397	101
4	657	63.648122615546	102
4	657	63.648122615546	103
4	657	63.648122615546	104
4	671	64.787958425524	105
4	671	64.787958425524	106
4	671	64.787958425524	107
4	691	68.07995938496	108
4	691	68.07995938496	109
4	691	68.07995938496	110
4	713	69.430577713361	111
4	713	69.430577713361	112
4	713	69.430577713361	113
4	728	71.392988733444	114
4	728	71.392988733444	115
4	728	71.392988733444	116
4	746	72.991552962245	117
4	746	72.991552962245	118
4	746	72.991552962245	119
4	767	74.18752591198	120
4	767	74.18752591198	121
4	767	74.18752591198	122
4	782	75.585674775526	123
4	782	75.585674775526	124
4	782	75.585674775526	125
4	803	77.445571401126	126
4	803	77.445571401126	127
4	803	77.445571401126	128
4	818	79.298970352454	129
4	818	79.298970352454	130
4	818	79.298970352454	131
4	836	80.29239133799	132
4	836	80.29239133799	133
4	836	80.29239133799	134
4	854	81.510351274629	135
4	854	81.510351274629	136
4	854	81.510351274629	137
4	873	84.431273771707	138
4	873	84.431273771707	139
4	873	84.431273771707	140
4	892	85.506368304873	141
4	892	85.506368304873	142
4	892	85.506368304873	143
4	910	87.373798336158	144
4	910	87.373798336158	145
4	910	87.373798336158	146
4	933	90.28866523342	147
4	933	90.28866523342	148
4	933	90.28866523342	149
4	948	92.014178763349	150
4	948	92.014178763349	151
4	948	92.014178763349	152
4	969	93.995047373868	153
4	969	93.995047373868	154
4	969	93.995047373868	155
4	989	97.077461990281	156
4	989	97.077461990281	157
4	989	97.077461990281	158
4	1004	99.023561000458	159
4	1004	99.023561000458	160
4	1004	99.023561000458	161
4	1025	100.318727494031	162
4	1025	100.318727494031	163
4	1025	100.318727494031	164
4	1040	101.607947364581	165
4	1040	101.607947364581	166
4	1040	101.607947364581	167
4	1061	102.951767850719	168
4	1061	102.951767850719	169
4	1061	102.951767850719	170
4	1079	104.247309721132	171
4	1079	104.247309721132	172
4	1079	104.247309721132	173
4	1097	105.731976004014	174
4	1097	105.731976004014	175
4	1097	105.731976004014	176
4	1111	106.925460308684	177
4	1111	106.925460308684	178
4	1111	106.925460308684	179
4	1133	108.602323626293	180
4	1133	108.602323626293	181
4	1133	108.602323626293	182
4	1147	110.45577220613	183
4	1147	110.45577220613	184
4	1147	110.45577220613	185
4	1166	112.23962010204	186
4	1166	112.23962010204	187
4	1166	112.23962010204	188
4	1184	113.731793205794	189
4	1184	113.731793205794	190
4	1184	113.731793205794	191
4	1203	117.303190044785	192
4	1203	117.303190044785	193
4	1203	117.303190044785	194
4	1229	122.416892643313	195
4	1229	122.416892643313	196
4	1229	122.416892643313	197
4	1247	124.226889615923	198
4	1247	124.226889615923	199
4	1247	124.226889615923	200
4	1261	125.300259282677	201
4	1261	125.300259282677	202
4	1261	125.300259282677	203
4	1297	128.306869329816	204
4	1297	128.306869329816	205
4	1297	128.306869329816	206
4	1313	131.413060071359	207
4	1313	131.413060071359	208
4	1313	131.413060071359	209
4	1335	132.978251837894	210
4	1335	132.978251837894	211
4	1335	132.978251837894	212
4	1353	134.303249759663	213
4	1353	134.303249759663	214
4	1353	134.303249759663	215
4	1367	136.121172272186	216
4	1367	136.121172272186	217
4	1367	136.121172272186	218
4	1386	137.836466541188	219
4	1386	137.836466541188	220
4	1386	137.836466541188	221
4	1411	142.491799906752	222
4	1411	142.491799906752	223
4	1411	142.491799906752	224
4	1430	144.325301540747	225
4	1430	144.325301540747	226
4	1430	144.325301540747	227
4	1451	145.88554604186	228
4	1451	145.88554604186	229
4	1451	145.88554604186	230
4	1469	147.012186520428	231
4	1469	147.012186520428	232
4	1469	147.012186520428	233
4	1484	148.089390819773	234
4	1484	148.089390819773	235
4	1484	148.089390819773	236
4	1504	150.437503915417	237
4	1504	150.437503915417	238
4	1504	150.437503915417	239
4	1525	152.376788041972	240
4	1525	152.376788041972	241
4	1525	152.376788041972	242
4	1543	153.527843356426	243
4	1543	153.527843356426	244
4	1543	153.527843356426	245
4	1561	155.29501782488	246
4	1561	155.29501782488	247
4	1561	155.29501782488	248
4	1579	156.923800994561	249
4	1579	156.923800994561	250
4	1579	156.923800994561	251
4	1597	158.035100218857	252
4	1597	158.035100218857	253
4	1597	158.035100218857	254
4	1620	165.90835757141	255
4	1620	165.90835757141	256
4	1620	165.90835757141	257
4	1638	167.434744621741	258
4	1638	167.434744621741	259
4	1638	167.434744621741	260
4	1656	169.175153034505	261
4	1656	169.175153034505	262
4	1656	169.175153034505	263
4	1677	171.003203142334	264
4	1677	171.003203142334	265
4	1677	171.003203142334	266
4	1695	172.029483881439	267
4	1695	172.029483881439	268
4	1695	172.029483881439	269
4	1709	174.007411125704	270
4	1709	174.007411125704	271
4	1709	174.007411125704	272
4	1728	175.922510271895	273
4	1728	175.922510271895	274
4	1728	175.922510271895	275
4	1749	177.460983767703	276
4	1749	177.460983767703	277
4	1749	177.460983767703	278
4	1767	178.503702285021	279
4	1767	178.503702285021	280
4	1767	178.503702285021	281
4	1787	181.816636025831	282
4	1787	181.816636025831	283
4	1787	181.816636025831	284
4	1802	183.564641744138	285
4	1802	183.564641744138	286
4	1802	183.564641744138	287
4	1819	184.834797260028	288
4	1819	184.834797260028	289
4	1819	184.834797260028	290
4	1838	186.646266577626	291
4	1838	186.646266577626	292
4	1838	186.646266577626	293
4	1859	188.571961543979	294
4	1859	188.571961543979	295
4	1859	188.571961543979	296
4	1873	190.114282093491	297
4	1873	190.114282093491	298
4	1873	190.114282093491	299
4	1891	191.444742705612	300
4	1891	191.444742705612	301
4	1891	191.444742705612	302
4	1913	193.113373432574	303
4	1913	193.113373432574	304
4	1913	193.113373432574	305
4	1931	194.930031011022	306
4	1931	194.930031011022	307
4	1931	194.930031011022	308
4	1945	196.822369847125	309
4	1945	196.822369847125	310
4	1945	196.822369847125	311
4	1967	198.469579348763	312
4	1967	198.469579348763	313
4	1967	198.469579348763	314
4	1985	199.477200209327	315
4	1985	199.477200209327	316
4	1985	199.477200209327	317
4	2000	201.466408937925	318
4	2000	201.466408937925	319
4	2000	201.466408937925	320
4	2017	202.488665651743	321
4	2017	202.488665651743	322
4	2017	202.488665651743	323
4	2039	204.435193306725	324
4	2039	204.435193306725	325
4	2039	204.435193306725	326
4	2057	206.437471096009	327
4	2057	206.437471096009	328
4	2057	206.437471096009	329
4	2075	208.221735078931	330
4	2075	208.221735078931	331
4	2075	208.221735078931	332
4	2093	209.348579266819	333
4	2093	209.348579266819	334
4	2093	209.348579266819	335
4	2108	210.814687676282	336
4	2108	210.814687676282	337
4	2108	210.814687676282	338
4	2131	213.60610759515	339
4	2131	213.60610759515	340
4	2131	213.60610759515	341
4	2151	216.54850789479	342
4	2151	216.54850789479	343
4	2151	216.54850789479	344
4	2169	217.668844113682	345
4	2169	217.668844113682	346
4	2169	217.668844113682	347
4	2183	219.344820554818	348
4	2183	219.344820554818	349
4	2183	219.344820554818	350
4	2201	220.542158297551	351
4	2201	220.542158297551	352
4	2201	220.542158297551	353
4	2223	221.940941058055	354
4	2223	221.940941058055	355
4	2223	221.940941058055	356
4	2238	223.228818793987	357
4	2238	223.228818793987	358
4	2238	223.228818793987	359
4	2255	225.046190517462	360
4	2255	225.046190517462	361
4	2255	225.046190517462	362
4	2277	226.274957178909	363
4	2277	226.274957178909	364
4	2277	226.274957178909	365
4	2293	229.438473743302	366
4	2293	229.438473743302	367
4	2293	229.438473743302	368
4	2315	230.746122418395	369
4	2315	230.746122418395	370
4	2315	230.746122418395	371
4	2329	232.742804037447	372
4	2329	232.742804037447	373
4	2329	232.742804037447	374
4	2351	234.177680546082	375
4	2351	234.177680546082	376
4	2351	234.177680546082	377
4	2369	236.050955238776	378
4	2369	236.050955238776	379
4	2369	236.050955238776	380
4	2384	237.314762756152	381
4	2384	237.314762756152	382
4	2384	237.314762756152	383
4	2405	239.230042582512	384
4	2405	239.230042582512	385
4	2405	239.230042582512	386
5	18	0.285007828545	0
5	33	2.159258058031	1
5	69	5.440313303498	2
5	90	7.300558201228	3
5	104	8.491705335118	4
5	126	9.954790680341	5
5	158	12.881487651352	6
5	178	15.115748765087	7
5	193	16.616629230378	8
5	214	18.557135227217	9
5	232	20.117903455048	10
5	270	25.207546014646	11
5	292	29.92273182903	12
5	306	31.841500228338	13
5	328	32.976507668854	14
5	346	34.745474448857	15
5	378	38.576751409294	16
5	400	39.786911244254	17
5	420	42.5549171758	18
5	438	43.867553145687	19
5	456	44.92036867682	20
5	474	46.159919728508	21
5	494	48.725559831482	22
5	508	50.083329207871	23
5	532	52.75457080723	24
5	550	54.094680176559	25
5	568	55.244043651693	26
5	586	57.123235179365	27
5	604	58.961419210552	28
5	622	60.046787812132	29
5	640	61.316763066397	30
5	660	63.658122615546	31
5	675	64.797958425524	32
5	695	68.08995938496	33
5	716	69.440577713361	34
5	734	71.402988733444	35
5	752	73.001552962245	36
5	788	75.595674775526	37
5	806	77.455571401126	38
5	824	79.308970352454	39
5	842	80.30239133799	40
5	860	81.520351274629	41
5	876	84.441273771707	42
5	898	85.516368304873	43
5	916	87.383798336158	44
5	936	90.29866523342	45
5	954	92.024178763349	46
5	972	94.005047373868	47
5	992	97.087461990281	48
5	1010	99.033561000458	49
5	1028	100.328727494031	50
5	1064	102.961767850719	51
5	1100	105.741976004014	52
5	1114	106.935460308684	53
5	1136	108.612323626293	54
5	1172	112.24962010204	55
5	1190	113.741793205794	56
5	1206	117.313190044785	57
5	1232	122.426892643313	58
5	1250	124.236889615923	59
5	1264	125.310259282677	60
5	1300	128.316869329816	61
5	1316	131.423060071359	62
5	1338	132.988251837894	63
5	1356	134.313249759663	64
5	1370	136.131172272186	65
5	1415	142.501799906752	66
5	1436	144.335301540747	67
5	1454	145.89554604186	68
5	1472	147.022186520428	69
5	1490	148.099390819773	70
5	1510	150.447503915417	71
5	1546	153.537843356426	72
5	1564	155.30501782488	73
5	1582	156.933800994561	74
5	1600	158.045100218857	75
5	1626	165.91835757141	76
5	1644	167.444744621741	77
5	1662	169.185153034505	78
5	1680	171.013203142334	79
5	1698	172.039483881439	80
5	1713	174.017411125704	81
5	1752	177.470983767703	82
5	1770	178.513702285021	83
5	1790	181.826636025831	84
5	1808	183.574641744138	85
5	1823	184.844797260028	86
5	1844	186.656266577626	87
5	1862	188.581961543979	88
5	1877	190.124282093491	89
5	1894	191.454742705612	90
5	1934	194.940031011022	91
5	1949	196.832369847125	92
5	1970	198.479579348763	93
5	1988	199.487200209327	94
5	2006	201.476408937925	95
5	2020	202.498665651743	96
5	2042	204.445193306725	97
5	2060	206.447471096009	98
5	2078	208.231735078931	99
5	2096	209.358579266819	100
5	2114	210.824687676282	101
5	2134	213.61610759515	102
5	2154	216.55850789479	103
5	2172	217.678844113682	104
5	2186	219.354820554818	105
5	2204	220.552158297551	106
5	2226	221.950941058055	107
5	2244	223.238818793987	108
5	2258	225.056190517462	109
5	2280	226.284957178909	110
5	2297	229.448473743302	111
5	2318	230.756122418395	112
5	2332	232.752804037447	113
5	2354	234.187680546082	114
5	2372	236.060955238776	115
5	2390	237.324762756152	116
5	2408	239.240042582512	117

