version 2
run General-2-20230921-23:17:26-8940
attr configname General
attr datetime 20230921-23:17:26
attr experiment General
attr inifile omnetpp.ini
attr iterationvars ""
attr iterationvarsf ""
attr measurement ""
attr network Network2
attr processid 8940
attr repetition 2
attr replication #2
attr resultdir results
attr runnumber 2
attr seedset 2
param Network2.node[*].transmissionTime "uniform(1s, 2s)"
param Network2.node[*].delayTime "uniform(0.01s, 0.2s)"
param Network2.node[*].processingTime exponential(0.01s)
param Network2.node[*].lossProbability 0.3

vector 0 Network2.node[0] txVector ETV
vector 1 Network2.node[1] txVector ETV
vector 2 Network2.node[6] txVector ETV
vector 3 Network2.node[2] txVector ETV
vector 4 Network2.node[4] txVector ETV
vector 5 Network2.node[5] rxVector ETV
vector 6 Network2.node[3] txVector ETV
0	1	0.092839031499	0
0	3	1.277921112972	1
0	11	3.20946197656	2
0	19	4.509116653837	3
0	21	6.095913632791	4
0	31	7.815667863721	5
0	35	9.103536683619	6
0	39	10.597826451547	7
0	49	11.704772136192	8
0	55	13.210008853133	9
0	57	14.372307456349	10
0	71	16.073059799866	11
0	79	18.026802022261	12
0	83	19.054004388414	13
0	93	20.942308134883	14
0	105	22.368330661924	15
0	109	23.75522054594	16
0	125	25.134431112576	17
0	127	26.476342717902	18
0	135	27.858035656409	19
0	147	29.737237686775	20
0	155	30.8438102205	21
0	161	32.757725697262	22
0	165	34.583975523961	23
0	173	36.421806071903	24
0	177	37.608433215897	25
0	179	38.618683257158	26
0	181	40.248042983719	27
0	183	41.543215289497	28
0	187	42.730501833623	29
0	189	44.20191169206	30
0	197	45.75140851086	31
0	199	46.913103943709	32
0	207	48.132393916622	33
0	209	49.945175868245	34
0	213	51.49104857144	35
0	221	52.521638049298	36
0	229	53.879878357072	37
0	237	55.499519818482	38
0	245	57.372647158588	39
0	249	58.558236894683	40
0	255	60.335824806728	41
0	263	61.667698517228	42
0	267	63.11226945838	43
0	269	64.277136600828	44
0	275	66.104589951243	45
0	283	67.172325190408	46
0	295	68.553987767799	47
0	303	70.480149049796	48
0	307	71.577697120393	49
0	309	73.14683765431	50
0	311	74.951969194478	51
0	321	76.785130437483	52
0	325	78.541143444619	53
0	335	80.254150734768	54
0	337	81.641051079864	55
0	339	83.496170747346	56
0	349	84.876963328357	57
0	351	86.123216919621	58
0	355	87.913460718022	59
0	363	89.089105404235	60
0	367	90.264829593731	61
0	379	91.471448344897	62
0	383	93.124355294063	63
0	395	94.287694563876	64
0	401	95.981847108827	65
0	405	97.834110035115	66
0	409	99.042151652063	67
0	415	100.474284752757	68
0	417	101.963586046613	69
0	423	103.224306064445	70
0	433	105.117211942581	71
0	437	106.846212746596	72
0	441	108.682956276016	73
0	449	109.970591534881	74
0	455	111.838510003893	75
0	461	112.928977984257	76
0	463	114.674516798949	77
0	465	116.039782832863	78
0	467	117.788747869453	79
0	471	119.295519708211	80
0	477	120.358421243981	81
0	487	122.293574804927	82
0	495	123.573843088721	83
0	503	125.430073925548	84
0	505	127.278275334996	85
0	507	129.119398288683	86
0	515	131.073686924319	87
0	523	132.704954321518	88
0	537	133.737808255035	89
0	545	134.939707757694	90
0	549	136.267101940721	91
0	551	137.726792237045	92
0	555	139.58876869527	93
0	563	140.855394588339	94
0	565	142.104128876489	95
0	567	143.393804365557	96
0	571	145.26974443814	97
0	581	146.305529415628	98
0	585	148.208919079529	99
0	589	149.741759971736	100
0	591	151.741076887373	101
0	595	153.449982432436	102
0	597	154.767880928956	103
0	599	156.339889747111	104
0	605	157.712310266003	105
0	611	159.314073989654	106
0	621	160.890783651287	107
0	625	162.631485559766	108
0	627	164.274814020631	109
0	629	165.8181326634	110
0	637	167.779522854158	111
0	641	169.157245842063	112
0	649	170.721353652443	113
0	657	171.782507416581	114
0	667	173.217599842719	115
0	673	174.220935285579	116
0	683	175.286645961714	117
0	685	177.220782710726	118
0	691	178.796937062426	119
0	693	180.243405171691	120
0	695	182.005835732233	121
0	701	183.642399145544	122
0	709	185.236139515436	123
0	719	186.261178121458	124
0	721	187.593951200855	125
0	723	189.301431291525	126
0	725	190.642759237692	127
0	737	192.565821967341	128
0	739	193.996842027895	129
0	753	195.537810124943	130
0	757	196.817137378521	131
0	761	198.629655074348	132
0	763	199.952611715087	133
0	767	201.779409195549	134
0	769	203.709146283587	135
0	771	205.172456059858	136
0	775	206.275205338161	137
0	779	207.496098305817	138
0	783	209.449789849828	139
0	791	210.570630599299	140
0	799	211.707580462118	141
0	803	212.794836080886	142
0	807	214.236839147538	143
0	809	216.175808033926	144
0	827	217.482131257906	145
0	837	218.698752402348	146
0	863	220.461952625095	147
0	867	222.015833273317	148
0	873	223.658611977027	149
0	881	225.136396059321	150
0	885	227.128067188684	151
0	887	229.007281676887	152
0	891	230.752157933332	153
0	897	232.29975383335	154
0	903	234.125859308543	155
0	909	235.279280097943	156
0	913	236.389212296598	157
0	917	237.58556291952	158
0	919	239.027847975746	159
1	5	1.317434556699	0
1	13	3.222565716216	1
1	23	6.108904408091	2
1	33	7.826903033032	3
1	37	9.121878380788	4
1	41	10.610314991632	5
1	51	11.719664288561	6
1	59	14.41570408193	7
1	73	16.090916990416	8
1	81	18.039641276794	9
1	85	19.09233938375	10
1	95	20.95620711717	11
1	107	22.39616958092	12
1	111	23.765351574001	13
1	129	26.519166087333	14
1	137	27.877012710626	15
1	149	29.751835963246	16
1	157	30.859252932261	17
1	163	32.777495747851	18
1	167	34.601664013988	19
1	175	36.432977964414	20
1	185	41.554216676226	21
1	191	44.230562294427	22
1	201	46.941214446246	23
1	211	49.955360258187	24
1	215	51.505466775726	25
1	223	52.531829725893	26
1	231	53.893309272472	27
1	239	55.516156746325	28
1	247	57.384063851408	29
1	251	58.58324734983	30
1	257	60.352392152288	31
1	265	61.690277426205	32
1	271	64.294895321524	33
1	277	66.124483438146	34
1	285	67.215786788074	35
1	297	68.59230960585	36
1	305	70.492714710931	37
1	313	74.964273314477	38
1	323	76.824585267599	39
1	327	78.565834104308	40
1	341	83.508134666068	41
1	353	86.147585861647	42
1	357	87.926404619662	43
1	365	89.099930943039	44
1	369	90.280353179469	45
1	381	91.487944172342	46
1	385	93.147377140413	47
1	397	94.310924747611	48
1	403	96.002089728689	49
1	407	97.844339820926	50
1	411	99.055540741653	51
1	419	101.978738365203	52
1	425	103.234601890471	53
1	435	105.128560523679	54
1	439	106.861540334669	55
1	443	108.727103094481	56
1	451	109.983060608584	57
1	457	111.855694875287	58
1	469	117.803746795905	59
1	473	119.30655067671	60
1	479	120.370729191911	61
1	489	122.304820295262	62
1	497	123.621369614888	63
1	509	129.12942314377	64
1	517	131.090210438446	65
1	525	132.730362672844	66
1	539	133.771566205525	67
1	547	134.983052542583	68
1	553	137.739465297917	69
1	557	139.61502314214	70
1	569	143.403993728676	71
1	573	145.286451575799	72
1	583	146.317851302115	73
1	587	148.235335344617	74
1	593	151.758783798581	75
1	601	156.373917106985	76
1	607	157.746616584638	77
1	613	159.324355354086	78
1	623	160.903319695859	79
1	631	165.836273812654	80
1	639	167.796920171152	81
1	643	169.169577465517	82
1	651	170.7360180949	83
1	659	171.797147395153	84
1	669	173.253474318763	85
1	675	174.234752039315	86
1	687	177.232830593585	87
1	697	182.017884397927	88
1	703	183.660196585885	89
1	711	185.249171076637	90
1	727	190.678429555414	91
1	741	194.011777828955	92
1	755	195.549184701932	93
1	759	196.82864774932	94
1	765	199.978135653136	95
1	773	205.18888640297	96
1	777	206.285647165475	97
1	781	207.511163493756	98
1	785	209.462141978496	99
1	793	210.584468316188	100
1	801	211.735670681952	101
1	805	212.829337400702	102
1	811	216.187806228872	103
1	829	217.498083520441	104
1	839	218.714483750356	105
1	865	220.474777419439	106
1	869	222.029900076502	107
1	875	223.675009998923	108
1	883	225.152617597739	109
1	889	229.018612993144	110
1	893	230.769703987156	111
1	899	232.316760714427	112
1	905	234.136250389835	113
1	911	235.295567686982	114
1	915	236.411831618196	115
1	921	239.041644372596	116
2	7	1.332888171871	0
2	25	6.125721275924	1
2	53	11.776606485236	2
2	61	14.428153755606	3
2	77	16.122718388468	4
2	87	19.118446688753	5
2	115	23.808807982597	6
2	119	23.85424920075	7
2	217	51.539619333567	8
2	253	58.61211653862	9
2	287	67.225833532363	10
2	315	74.979536085776	11
2	329	78.578429719524	12
2	371	90.291267527365	13
2	375	90.328080435299	14
2	389	93.181314670751	15
2	399	94.321345954643	16
2	413	99.078524613091	17
2	427	103.255978168778	18
2	459	111.870119043665	19
2	499	123.638775553252	20
2	519	131.104256492534	21
2	527	132.750278460069	22
2	531	132.794751436249	23
2	603	156.393697692568	24
2	615	159.345364296026	25
2	653	170.748795823277	26
2	661	171.816374125567	27
2	679	174.261523629083	28
2	705	183.687894364505	29
2	713	185.264987196146	30
2	731	190.741900422718	31
2	749	194.087243779889	32
2	817	216.239675923616	33
2	821	216.273926317746	34
2	853	218.85002590225	35
2	857	218.89111640891	36
2	861	218.930862055588	37
2	895	230.78024935409	38
2	901	232.371627875226	39
2	907	234.16146806546	40
3	9	1.344565575783	0
3	15	3.249615667157	1
3	27	6.137669079877	2
3	45	10.63440534624	3
3	63	14.442333389322	4
3	67	14.471067603967	5
3	75	16.105479455685	6
3	89	19.140706896327	7
3	99	20.989095474386	8
3	113	23.777745996085	9
3	117	23.829661055202	10
3	121	23.86960902551	11
3	131	26.542575464552	12
3	139	27.88888175664	13
3	143	27.944831344007	14
3	193	44.242131293145	15
3	205	46.977781866155	16
3	219	51.550298521661	17
3	233	53.951572740568	18
3	241	55.540188342252	19
3	273	64.323346777401	20
3	289	67.240081512503	21
3	301	68.625140730418	22
3	317	74.98997695309	23
3	331	78.59006063357	24
3	345	83.533156021243	25
3	359	87.937748867714	26
3	373	90.305586494113	27
3	377	90.338702462243	28
3	387	93.166765831456	29
3	391	93.236288682134	30
3	421	101.990281483144	31
3	429	103.268171730145	32
3	445	108.744094883341	33
3	453	109.993505245801	34
3	481	120.406117854741	35
3	491	122.325386819654	36
3	501	123.659316546982	37
3	513	129.158596454758	38
3	521	131.116003323639	39
3	529	132.761333377228	40
3	533	132.807547849829	41
3	543	133.823518163789	42
3	559	139.635225692062	43
3	577	145.320854365631	44
3	617	159.356401803168	45
3	633	165.855853883271	46
3	645	169.186039886667	47
3	655	170.770775709256	48
3	663	171.845691238983	49
3	671	173.267937601062	50
3	677	174.245812163094	51
3	681	174.288024494549	52
3	689	177.243072953877	53
3	699	182.029317391741	54
3	707	183.712633735286	55
3	715	185.275511263172	56
3	729	190.72686553017	57
3	733	190.753740289603	58
3	743	194.040492852258	59
3	747	194.076815894885	60
3	751	194.099899911942	61
3	787	209.480146757359	62
3	795	210.595941285832	63
3	815	216.209706081887	64
3	819	216.25412102293	65
3	823	216.286904959563	66
3	833	217.533965181653	67
3	843	218.739620590857	68
3	847	218.78795920432	69
3	851	218.823098818482	70
3	855	218.872444956776	71
3	859	218.912087075667	72
4	17	3.261061069898	0
4	29	6.154706027769	1
4	47	10.655026207364	2
4	103	21.024173433665	3
4	123	23.887615857337	4
4	133	26.554991541087	5
4	145	27.968645521846	6
4	153	29.78888938378	7
4	171	34.632852242198	8
4	195	44.254772488437	9
4	227	52.557188488213	10
4	243	55.550621898337	11
4	261	60.421217226301	12
4	281	66.171284257197	13
4	293	67.296263346505	14
4	347	83.553685496709	15
4	361	87.952635978358	16
4	393	93.250843956363	17
4	431	103.28355563736	18
4	447	108.758210242677	19
4	485	120.431822604165	20
4	493	122.339119646352	21
4	535	132.819714425244	22
4	561	139.663204375901	23
4	579	145.334431878952	24
4	619	159.443913827121	25
4	635	165.873759035481	26
4	647	169.198174320919	27
4	665	171.867420092353	28
4	717	185.290062974026	29
4	735	190.769260348315	30
4	797	210.634706093779	31
4	825	216.300483957506	32
4	879	223.715472798162	33
5	18	3.271061069898	0
5	48	10.665026207364	1
5	104	21.034173433665	2
5	124	23.897615857337	3
5	134	26.564991541087	4
5	146	27.978645521846	5
5	154	29.79888938378	6
5	172	34.642852242198	7
5	196	44.264772488437	8
5	282	66.181284257197	9
5	294	67.306263346505	10
5	348	83.563685496709	11
5	362	87.962635978358	12
5	394	93.260843956363	13
5	448	108.768210242677	14
5	486	120.441822604165	15
5	494	122.349119646352	16
5	562	139.673204375901	17
5	580	145.344431878952	18
5	620	159.453913827121	19
5	636	165.883759035481	20
5	666	171.877420092353	21
5	718	185.300062974026	22
5	736	190.779260348315	23
5	798	210.644706093779	24
5	826	216.310483957506	25
5	880	223.725472798162	26
6	43	10.622152096614	0
6	65	14.455327335576	1
6	69	14.487375761617	2
6	91	19.152560864481	3
6	97	20.966674668665	4
6	101	21.006107276761	5
6	141	27.933393169021	6
6	151	29.770802917371	7
6	159	30.894229049055	8
6	169	34.619602704884	9
6	203	46.951743056632	10
6	225	52.544036530692	11
6	235	53.967515079462	12
6	259	60.381900139284	13
6	279	66.149168768216	14
6	291	67.27100166458	15
6	299	68.610884613155	16
6	319	75.005687729198	17
6	333	78.601670262343	18
6	343	83.520151989419	19
6	475	119.332433082138	20
6	483	120.419561616691	21
6	511	129.147152821916	22
6	541	133.798342394218	23
6	575	145.304726534048	24
6	609	157.79581893645	25
6	745	194.063164255482	26
6	789	209.502258822154	27
6	813	216.198079387764	28
6	831	217.522474628792	29
6	835	217.545261276598	30
6	841	218.727263960816	31
6	845	218.775044857079	32
6	849	218.804164448667	33
6	871	222.044689572186	34
6	877	223.688926112051	35

