version 2
run General-1-20230921-23:17:26-8940
attr configname General
attr datetime 20230921-23:17:26
attr experiment General
attr inifile omnetpp.ini
attr iterationvars ""
attr iterationvarsf ""
attr measurement ""
attr network Network2
attr processid 8940
attr repetition 1
attr replication #1
attr resultdir results
attr runnumber 1
attr seedset 1
param Network2.node[*].transmissionTime "uniform(1s, 2s)"
param Network2.node[*].delayTime "uniform(0.01s, 0.2s)"
param Network2.node[*].processingTime exponential(0.01s)
param Network2.node[*].lossProbability 0.3

vector 0 Network2.node[0] txVector ETV
vector 1 Network2.node[1] txVector ETV
vector 2 Network2.node[3] txVector ETV
vector 3 Network2.node[4] txVector ETV
vector 4 Network2.node[5] rxVector ETV
vector 5 Network2.node[2] txVector ETV
vector 6 Network2.node[6] txVector ETV
0	1	0.089234179703	0
0	7	2.086418987836	1
0	15	3.178757583375	2
0	23	4.863977084055	3
0	27	6.321181893235	4
0	35	8.099571128728	5
0	39	9.994177792573	6
0	41	11.267227769948	7
0	49	12.326470967035	8
0	51	14.018348079759	9
0	53	15.333863713664	10
0	57	17.020364638303	11
0	65	18.054535948324	12
0	69	19.502429472866	13
0	71	20.62191994663	14
0	73	22.146719329643	15
0	83	23.230342334953	16
0	87	25.186877993752	17
0	95	26.289212424193	18
0	103	27.334558149219	19
0	105	28.782538332163	20
0	113	30.67467420071	21
0	127	32.425486303285	22
0	131	34.088927801583	23
0	143	35.875879275497	24
0	145	37.493024191936	25
0	155	38.819669094054	26
0	163	40.749106328353	27
0	169	41.941062404426	28
0	171	43.864086945193	29
0	175	45.575611702051	30
0	177	46.9719249903	31
0	179	48.079290298629	32
0	181	49.589100576821	33
0	187	50.691235809238	34
0	189	51.815409126343	35
0	191	53.094592807	36
0	201	54.680352074909	37
0	209	56.107261898578	38
0	211	58.044452224509	39
0	213	59.96086209768	40
0	215	61.74282056035	41
0	221	63.359149503172	42
0	225	64.653508975054	43
0	227	65.856802216149	44
0	229	67.109127962845	45
0	231	68.85295382014	46
0	237	70.048383300309	47
0	239	71.542153013521	48
0	245	73.162108725519	49
0	253	74.201792227454	50
0	261	75.581933403272	51
0	265	77.346175015788	52
0	267	78.556349028019	53
0	269	80.30910458637	54
0	279	81.375641068794	55
0	281	82.700158569148	56
0	289	84.428170209402	57
0	295	86.156727606082	58
0	301	87.798293812783	59
0	309	89.347841732088	60
0	311	90.70241896587	61
0	313	91.78093893535	62
0	321	93.474124133471	63
0	329	94.579515383696	64
0	333	96.161529563019	65
0	347	98.066921874998	66
0	357	99.874282399775	67
0	359	100.928191674292	68
0	361	102.348385354854	69
0	365	104.027454192169	70
0	369	105.894971646952	71
0	371	107.868755189587	72
0	373	109.473471290317	73
0	375	111.302317099996	74
0	379	112.877028607881	75
0	383	114.57691263815	76
0	385	116.43522647617	77
0	389	118.190308658989	78
0	391	119.512989659678	79
0	397	121.183778450709	80
0	409	122.585258036271	81
0	411	124.382896843251	82
0	415	126.262895130204	83
0	417	127.279357894674	84
0	425	128.578158118647	85
0	433	130.097169747461	86
0	439	131.870020178264	87
0	445	133.681878871402	88
0	453	135.204165439472	89
0	457	137.120470991243	90
0	459	138.339153894574	91
0	461	139.779982216541	92
0	465	141.260260399549	93
0	471	142.468454838616	94
0	479	144.085139907549	95
0	487	145.706946135151	96
0	495	147.22629795538	97
0	509	149.092906226522	98
0	513	150.863144955716	99
0	515	152.176900337103	100
0	527	153.403361950887	101
0	535	155.378102315709	102
0	547	156.836253194025	103
0	553	158.527195335252	104
0	555	159.803041234964	105
0	557	161.028431710906	106
0	563	162.675185625095	107
0	571	164.400165746108	108
0	577	165.781181870846	109
0	585	167.740616188038	110
0	587	169.246342408823	111
0	589	170.940749261182	112
0	599	172.397727168517	113
0	609	174.307364116775	114
0	611	175.987383263072	115
0	625	177.571343051389	116
0	629	179.374506386116	117
0	635	181.028196141708	118
0	639	182.637009230561	119
0	645	184.588203015157	120
0	647	185.665981888889	121
0	649	187.281286120766	122
0	659	189.119089988412	123
0	669	190.368940666437	124
0	679	192.351358110903	125
0	681	193.863650808463	126
0	691	195.802537286541	127
0	703	197.662026605921	128
0	713	199.184822639337	129
0	715	200.825727899911	130
0	717	201.953534902891	131
0	719	203.360237776654	132
0	727	204.716647864904	133
0	735	205.901778261296	134
0	737	207.1305919342	135
0	739	208.794694495739	136
0	743	210.291944584695	137
0	747	211.875383115725	138
0	757	213.692218228129	139
0	763	214.760649288425	140
0	767	216.715859460298	141
0	769	218.540097301712	142
0	779	220.172713120587	143
0	783	221.641341462152	144
0	785	222.961312899718	145
0	791	224.073212658174	146
0	795	225.536132744167	147
0	797	227.291024203997	148
0	805	228.754881982811	149
0	807	230.110390261634	150
0	809	231.507189371743	151
0	817	233.370101093667	152
0	821	234.819347847373	153
0	829	235.924016457171	154
0	837	237.198136233379	155
0	839	238.945457045807	156
1	3	0.126198958082	0
1	9	2.098480134176	1
1	17	3.191044827441	2
1	25	4.879610536368	3
1	29	6.343768665347	4
1	37	8.110459924014	5
1	43	11.288330410257	6
1	55	15.361859150954	7
1	59	17.040147097119	8
1	67	18.088460554489	9
1	75	22.18159178359	10
1	85	23.243366624118	11
1	89	25.202223304086	12
1	97	26.300720259147	13
1	107	28.797279803704	14
1	115	30.697620398985	15
1	129	32.445206867618	16
1	133	34.099589918939	17
1	147	37.510512019371	18
1	157	38.841409898684	19
1	165	40.765348352929	20
1	173	43.875413930729	21
1	183	49.602507437502	22
1	193	53.139524534353	23
1	203	54.704290219344	24
1	217	61.75318719434	25
1	223	63.373625112853	26
1	233	68.871661233741	27
1	241	71.569812813692	28
1	247	73.188922166566	29
1	255	74.219798398169	30
1	263	75.594325290348	31
1	271	80.322119896341	32
1	283	82.71755543706	33
1	291	84.452289834897	34
1	297	86.171670695826	35
1	303	87.834355261903	36
1	315	91.791066876987	37
1	323	93.491117313477	38
1	331	94.610621155504	39
1	335	96.177689207313	40
1	349	98.080708813858	41
1	363	102.383469373356	42
1	367	104.052879568849	43
1	377	111.3222077629	44
1	381	112.898985661811	45
1	387	116.457201654627	46
1	393	119.528983932049	47
1	399	121.197596678022	48
1	413	124.416314464195	49
1	419	127.297138836966	50
1	427	128.602893383452	51
1	435	130.119400696951	52
1	441	131.900811526263	53
1	447	133.715300373381	54
1	455	135.238204480242	55
1	463	139.79403613223	56
1	467	141.273111035375	57
1	473	142.481116212144	58
1	481	144.102992754175	59
1	489	145.73233108599	60
1	497	147.266216551313	61
1	511	149.116063787752	62
1	517	152.198057958999	63
1	529	153.42348458327	64
1	537	155.409933288863	65
1	549	156.848343588809	66
1	559	161.063831708215	67
1	565	162.688793477762	68
1	573	164.424023023789	69
1	579	165.807476282145	70
1	591	170.955232069449	71
1	601	172.41097623876	72
1	613	176.00590518409	73
1	627	177.586491262606	74
1	631	179.384887849596	75
1	637	181.039319000396	76
1	641	182.670590423584	77
1	651	187.303193573977	78
1	661	189.130994697151	79
1	671	190.382041834388	80
1	683	193.873965188873	81
1	693	195.820713433935	82
1	705	197.673793236676	83
1	721	203.371876575654	84
1	729	204.738750340436	85
1	741	208.812013708226	86
1	745	210.32827268853	87
1	749	211.894406319192	88
1	759	213.723392237395	89
1	765	214.77602427235	90
1	771	218.561145600613	91
1	781	220.18882704	92
1	787	222.975067322678	93
1	793	224.093305416292	94
1	799	227.302357490081	95
1	811	231.544109738891	96
1	819	233.404727304296	97
1	823	234.833435221285	98
1	831	235.942238315055	99
1	841	238.970320371436	100
2	5	0.205690100955	0
2	11	2.113534659501	1
2	31	6.357529051571	2
2	63	17.066204262448	3
2	79	22.213458130176	4
2	91	25.219016922323	5
2	139	34.166373486179	6
2	159	38.852136481938	7
2	185	49.646824392773	8
2	207	54.733032817213	9
2	219	61.763313549084	10
2	235	68.895168790123	11
2	249	73.20274007825	12
2	259	74.267698498141	13
2	299	86.183497331089	14
2	319	91.843741823079	15
2	325	93.517697855656	16
2	345	96.267891460315	17
2	351	98.107588218362	18
2	407	121.253619591704	19
2	469	141.283681600616	20
2	503	147.319918027055	21
2	519	152.2139665048	22
2	523	152.235977111462	23
2	543	155.471196524948	24
2	561	161.08093497203	25
2	567	162.699073419981	26
2	575	164.457415708228	27
2	581	165.818896868714	28
2	615	176.016186950094	29
2	685	193.890587907639	30
2	695	195.83760465301	31
2	699	195.859986209709	32
2	707	197.688434148336	33
2	731	204.757288643982	34
2	755	211.93806960205	35
2	775	218.58948298382	36
2	801	227.312539852389	37
2	833	235.956583593151	38
2	843	238.987749543648	39
3	13	2.14226289617	0
3	21	3.224753789126	1
3	33	6.374830328622	2
3	81	22.231994050606	3
3	93	25.229529365372	4
3	111	28.823569875942	5
3	125	30.831584126101	6
3	141	34.179959690252	7
3	153	37.583075514402	8
3	161	38.863611460941	9
3	199	53.206692878768	10
3	327	93.531003428023	11
3	355	98.138509479572	12
3	485	144.131696558291	13
3	493	145.761662884948	14
3	507	147.36152557231	15
3	525	152.254052195687	16
3	545	155.49755618379	17
3	583	165.858375617274	18
3	597	171.014718259997	19
3	623	176.134755843166	20
3	657	187.449836322992	21
3	667	189.193628025535	22
3	689	193.914514498396	23
3	701	195.877269137835	24
3	711	197.748793793123	25
3	733	204.77238280013	26
3	777	218.601831760547	27
3	803	227.333743800583	28
3	815	231.57620777831	29
3	835	235.96669189544	30
4	14	2.15226289617	0
4	22	3.234753789126	1
4	34	6.384830328622	2
4	94	25.239529365372	3
4	112	28.833569875942	4
4	142	34.189959690252	5
4	162	38.873611460941	6
4	200	53.216692878768	7
4	328	93.541003428023	8
4	508	147.37152557231	9
4	526	152.264052195687	10
4	546	155.50755618379	11
4	598	171.024718259997	12
4	658	187.459836322992	13
4	690	193.924514498396	14
4	702	195.887269137835	15
4	712	197.758793793123	16
4	778	218.611831760547	17
4	804	227.343743800583	18
4	816	231.58620777831	19
5	19	3.20365298594	0
5	47	11.319103473639	1
5	61	17.053692373893	2
5	77	22.194678071673	3
5	101	26.371117613205	4
5	109	28.809087281988	5
5	119	30.743239542978	6
5	123	30.800269041783	7
5	137	34.133003841028	8
5	151	37.566775805683	9
5	197	53.180236776056	10
5	205	54.722414938724	11
5	243	71.580000322722	12
5	251	73.213897959236	13
5	257	74.254620744728	14
5	275	80.353867687509	15
5	287	82.739504035495	16
5	293	84.470423864374	17
5	307	87.891989467199	18
5	317	91.833590494011	19
5	339	96.205304885375	20
5	343	96.255427425085	21
5	353	98.119621752668	22
5	401	121.215839696792	23
5	405	121.243519091099	24
5	423	127.33421429614	25
5	431	128.627783206452	26
5	451	133.756099628617	27
5	477	142.510822565579	28
5	483	144.120133622973	29
5	491	145.747322366856	30
5	501	147.297067472715	31
5	505	147.339340289145	32
5	521	152.224433869797	33
5	533	153.500332762829	34
5	541	155.45663089183	35
5	551	156.861489070243	36
5	569	162.710001332382	37
5	595	170.990184880954	38
5	603	172.438349512156	39
5	607	172.459279254129	40
5	617	176.069571116343	41
5	621	176.113640934156	42
5	633	179.404524649548	43
5	643	182.687736160699	44
5	655	187.356100278541	45
5	665	189.17481930463	46
5	673	190.399006084445	47
5	677	190.468557117487	48
5	687	193.900864571993	49
5	697	195.847698578513	50
5	709	197.72019362728	51
5	725	203.431820284269	52
5	753	211.92708710902	53
5	761	213.770422033917	54
5	773	218.575128799941	55
5	789	223.026661566482	56
5	813	231.554236577543	57
5	827	234.880668034511	58
5	845	239.002111903816	59
6	45	11.303796797178	0
6	99	26.339651069936	1
6	117	30.719338830644	2
6	121	30.767646332833	3
6	135	34.118226655255	4
6	149	37.532857800845	5
6	167	40.782446151071	6
6	195	53.154110713137	7
6	273	80.33366613934	8
6	277	80.3897447876	9
6	285	82.729363537411	10
6	305	87.848949885408	11
6	337	96.191940099049	12
6	341	96.245270873294	13
6	395	119.541731164503	14
6	403	121.231305516023	15
6	421	127.323341858317	16
6	429	128.613587227763	17
6	437	130.129855043344	18
6	443	131.919239475997	19
6	449	133.727849811421	20
6	475	142.498369961996	21
6	499	147.286027820011	22
6	531	153.482858293347	23
6	539	155.421681528389	24
6	593	170.9752774645	25
6	605	172.448462956382	26
6	619	176.097660986839	27
6	653	187.332940040009	28
6	663	189.161750010388	29
6	675	190.433171781993	30
6	723	203.391218428732	31
6	751	211.908033404941	32
6	825	234.853909305788	33

