version 2
run General-4-20230921-23:17:26-8940
attr configname General
attr datetime 20230921-23:17:26
attr experiment General
attr inifile omnetpp.ini
attr iterationvars ""
attr iterationvarsf ""
attr measurement ""
attr network Network2
attr processid 8940
attr repetition 4
attr replication #4
attr resultdir results
attr runnumber 4
attr seedset 4
param Network2.node[*].transmissionTime "uniform(1s, 2s)"
param Network2.node[*].delayTime "uniform(0.01s, 0.2s)"
param Network2.node[*].processingTime exponential(0.01s)
param Network2.node[*].lossProbability 0.3

vector 0 Network2.node[0] txVector ETV
vector 1 Network2.node[1] txVector ETV
vector 2 Network2.node[3] txVector ETV
vector 3 Network2.node[2] txVector ETV
vector 4 Network2.node[4] txVector ETV
vector 5 Network2.node[5] rxVector ETV
vector 6 Network2.node[6] txVector ETV
0	1	0.193735669288	0
0	9	2.094357123985	1
0	11	4.070631578718	2
0	17	5.076861835704	3
0	25	6.274546907437	4
0	27	7.661118189492	5
0	33	8.705278243092	6
0	47	10.491584227341	7
0	49	11.59977761392	8
0	51	12.758001021496	9
0	53	14.303203675351	10
0	55	15.827607759428	11
0	71	17.465218008184	12
0	75	18.718127617301	13
0	101	20.355684685442	14
0	103	21.870418659565	15
0	105	23.473982169679	16
0	113	24.53904997759	17
0	127	25.587584117348	18
0	129	27.254511887361	19
0	135	28.40323872833	20
0	143	30.370918357665	21
0	145	31.789952398198	22
0	147	33.692374257058	23
0	149	35.671990520241	24
0	159	37.295559358936	25
0	161	38.907381178033	26
0	169	40.031395799168	27
0	177	41.121537521635	28
0	179	43.094815519093	29
0	189	44.134906640662	30
0	195	45.576247344412	31
0	205	47.507661611926	32
0	207	49.405753389619	33
0	213	50.544935189107	34
0	215	51.861211694929	35
0	219	53.615067144775	36
0	221	54.703840005364	37
0	231	56.533257953742	38
0	233	57.861580095639	39
0	239	59.18415507573	40
0	243	60.991704024526	41
0	251	62.681489318528	42
0	257	63.833374921151	43
0	261	64.927455563715	44
0	269	66.46523723324	45
0	275	67.767604584025	46
0	281	68.952813818736	47
0	285	70.813469683902	48
0	287	71.857392192037	49
0	293	73.142636785667	50
0	295	74.898286074783	51
0	301	76.149784540908	52
0	309	77.17518624236	53
0	311	78.723991364857	54
0	319	80.323788854444	55
0	327	81.964349773863	56
0	333	83.076224090216	57
0	335	84.912098627688	58
0	337	86.441171010408	59
0	339	87.854212053736	60
0	341	88.916778959484	61
0	345	90.112803352914	62
0	351	91.516613613033	63
0	359	92.599321223946	64
0	375	94.183596873807	65
0	377	96.04869132993	66
0	379	97.778906661237	67
0	393	99.375409938081	68
0	395	100.739387259272	69
0	403	102.316750955454	70
0	405	103.821751366987	71
0	413	104.854810834549	72
0	415	106.820239432076	73
0	419	108.38671946634	74
0	423	109.706144657372	75
0	425	111.267177221751	76
0	427	112.839001915338	77
0	439	113.990491164303	78
0	459	115.263587344358	79
0	461	116.698863654783	80
0	463	117.771031074611	81
0	465	119.303259598942	82
0	467	121.24208850941	83
0	475	122.54690421807	84
0	489	124.290873707425	85
0	491	125.631239869319	86
0	493	126.709111073207	87
0	505	127.766692412238	88
0	507	129.217500146398	89
0	517	130.291482590524	90
0	527	131.916623781122	91
0	539	133.223568994937	92
0	551	134.604208883283	93
0	567	136.436160278891	94
0	569	138.377257793362	95
0	573	139.717710417614	96
0	575	141.282567522873	97
0	581	142.401712419151	98
0	589	144.061570668512	99
0	591	145.24926338523	100
0	603	146.582054989099	101
0	609	147.853848403938	102
0	613	149.03592341036	103
0	617	150.221189690208	104
0	621	152.184939131992	105
0	625	154.078964846827	106
0	627	155.901277789067	107
0	633	157.776455217193	108
0	635	159.271324935288	109
0	639	161.035316983855	110
0	651	162.382524395513	111
0	657	163.680851391202	112
0	663	164.711808294907	113
0	665	166.041570428444	114
0	667	167.532242340419	115
0	677	169.516208051156	116
0	687	170.88643218103	117
0	695	172.348968830576	118
0	701	173.367987709271	119
0	717	175.299598809483	120
0	725	176.826026955538	121
0	739	178.640388694278	122
0	745	180.055106440012	123
0	749	181.983620787424	124
0	755	183.758545424475	125
0	757	185.252812116325	126
0	767	186.979893913876	127
0	769	188.612933983944	128
0	771	189.626829989405	129
0	773	191.615016409812	130
0	779	192.831357784021	131
0	781	194.169108723906	132
0	793	195.788759071996	133
0	795	197.293671409051	134
0	799	198.65622060272	135
0	803	200.549568565014	136
0	805	201.580140329582	137
0	817	202.818884982878	138
0	823	204.455936051357	139
0	833	205.602247657405	140
0	835	206.66686996204	141
0	837	207.707067808753	142
0	843	208.784626976971	143
0	845	210.393890527694	144
0	849	211.515151062666	145
0	853	212.73787334786	146
0	857	214.710919865558	147
0	859	215.890765042894	148
0	867	217.372525470948	149
0	871	218.691081899602	150
0	879	219.713023940951	151
0	889	221.289888737409	152
0	897	222.347081457183	153
0	905	224.151548454689	154
0	907	225.305706069257	155
0	911	227.200849683175	156
0	913	228.848942552844	157
0	915	229.874008839635	158
0	923	231.100871120032	159
0	925	232.222784714924	160
0	933	233.761805794818	161
0	939	235.342973980272	162
0	951	237.207116819836	163
0	965	238.432352109963	164
0	969	239.765620583586	165
1	3	0.205631491707	0
1	13	4.083548243528	1
1	19	5.106739085469	2
1	29	7.702503359601	3
1	35	8.735399010558	4
1	57	15.842740970819	5
1	73	17.475703667775	6
1	77	18.730252700459	7
1	107	23.491749082394	8
1	115	24.550213272358	9
1	131	27.269046155955	10
1	137	28.41710441087	11
1	151	35.682859006331	12
1	163	38.931632757835	13
1	171	40.04356871512	14
1	181	43.104976521006	15
1	191	44.148087661183	16
1	197	45.61371949169	17
1	209	49.428830239695	18
1	217	51.87448607379	19
1	223	54.729292076769	20
1	235	57.898958623194	21
1	241	59.195064345471	22
1	245	61.007711905169	23
1	253	62.693994220948	24
1	259	63.846464622811	25
1	263	64.966611529407	26
1	271	66.481539566866	27
1	277	67.782846770961	28
1	283	68.964618468926	29
1	289	71.870545658686	30
1	297	74.928189187873	31
1	303	76.16125047784	32
1	313	78.766628349616	33
1	321	80.334848575146	34
1	329	81.982340968806	35
1	343	88.932827195508	36
1	347	90.131182053245	37
1	353	91.528315948625	38
1	361	92.60949811598	39
1	381	97.805789653854	40
1	397	100.754654024959	41
1	407	103.834070221293	42
1	417	106.858454259912	43
1	421	108.409812539997	44
1	429	112.853495804996	45
1	441	114.00560394988	46
1	469	121.252744966072	47
1	477	122.564068302503	48
1	495	126.722558739123	49
1	509	129.234033409447	50
1	519	130.320667622439	51
1	529	131.94225430374	52
1	541	133.248797216789	53
1	553	134.616652799051	54
1	571	138.39117965384	55
1	577	141.292770178343	56
1	583	142.420240459455	57
1	593	145.260552307078	58
1	605	146.602195461165	59
1	611	147.878315494316	60
1	615	149.046396150906	61
1	619	150.249219871209	62
1	623	152.199970764842	63
1	629	155.922295992623	64
1	637	159.288687994646	65
1	641	161.057852154455	66
1	653	162.416846248369	67
1	659	163.70177782158	68
1	669	167.547873122075	69
1	679	169.53278774067	70
1	689	170.898581690248	71
1	697	172.368661091954	72
1	703	173.418651878617	73
1	719	175.310173075842	74
1	727	176.836926390088	75
1	741	178.661624325606	76
1	747	180.067995751128	77
1	751	181.99957518846	78
1	759	185.26957237462	79
1	775	191.629918449654	80
1	783	194.185201259339	81
1	797	197.307838654727	82
1	801	198.698343697759	83
1	807	201.59089814818	84
1	819	202.830073705813	85
1	825	204.485775264949	86
1	839	207.755233199451	87
1	847	210.408813668967	88
1	851	211.549436492437	89
1	855	212.748293587834	90
1	861	215.916237529243	91
1	869	217.406754585508	92
1	873	218.706284985545	93
1	881	219.723200438795	94
1	891	221.300034466384	95
1	899	222.367675097185	96
1	909	225.326700597921	97
1	917	229.891644526021	98
1	927	232.245145473276	99
1	935	233.772609824563	100
1	941	235.359478576423	101
1	953	237.218608211404	102
1	967	238.457100116981	103
2	5	0.228177698444	0
2	15	4.103571172425	1
2	63	15.888720052989	2
2	67	15.919735732201	3
2	95	18.903084359817	4
2	109	23.511282853519	5
2	123	24.650999230309	6
2	139	28.434987276729	7
2	153	35.699843580335	8
2	185	43.148668727331	9
2	199	45.638930608829	10
2	237	57.918040804417	11
2	247	61.039270627751	12
2	265	64.977533894712	13
2	279	67.822304224585	14
2	299	74.946470915737	15
2	323	80.358208804303	16
2	349	90.142987226399	17
2	357	91.566215535469	18
2	371	92.682643299898	19
2	399	100.767411939839	20
2	449	114.092766513861	21
2	453	114.137205101759	22
2	471	121.267817417182	23
2	497	126.735483843235	24
2	501	126.801638507324	25
2	521	130.339167531133	26
2	555	134.635329316652	27
2	559	134.688415973822	28
2	563	134.742953541694	29
2	607	146.612353295162	30
2	647	161.106082574428	31
2	655	162.439440235616	32
2	661	163.716570602988	33
2	673	167.607425557245	34
2	707	173.44507045367	35
2	711	173.498059405473	36
2	721	175.323013879369	37
2	743	178.680184378878	38
2	761	185.30420957963	39
2	809	201.610791963464	40
2	813	201.64618811377	41
2	821	202.840433789263	42
2	863	215.941963983706	43
2	893	221.322751799611	44
2	937	233.802363753115	45
2	943	235.383348020412	46
2	947	235.41048851479	47
2	961	237.320590288624	48
3	7	0.247279696778	0
3	21	5.126005828445	1
3	39	8.75811223376	2
3	43	8.817254662261	3
3	61	15.877226334439	4
3	65	15.903429305816	5
3	81	18.776097137122	6
3	85	18.805282183034	7
3	89	18.833710864539	8
3	93	18.892199745223	9
3	97	18.913541112222	10
3	111	23.525852064027	11
3	117	24.578119786262	12
3	121	24.624384314162	13
3	133	27.280999105216	14
3	141	28.448010797018	15
3	155	35.727331894595	16
3	165	38.955712408404	17
3	175	40.080577707263	18
3	183	43.12795433966	19
3	201	45.656182596271	20
3	211	49.485712298461	21
3	227	54.765690634903	22
3	249	61.079630009943	23
3	255	62.706962188095	24
3	273	66.505293049478	25
3	307	76.187939046303	26
3	315	78.780093626497	27
3	331	82.000950287517	28
3	355	91.549186391165	29
3	365	92.634821780561	30
3	369	92.671206072862	31
3	385	97.833194310637	32
3	389	97.880533168327	33
3	409	103.862790781845	34
3	431	112.902837232232	35
3	435	112.9324968077	36
3	443	114.015617517794	37
3	447	114.058817044225	38
3	451	114.103041257767	39
3	455	114.147520448753	40
3	479	122.575835724805	41
3	483	122.648819973266	42
3	487	122.677899550101	43
3	499	126.7910024075	44
3	511	129.245247558036	45
3	515	129.274615814834	46
3	523	130.357676456698	47
3	533	131.98353524721	48
3	537	132.039410712811	49
3	545	133.276369484792	50
3	549	133.297623121887	51
3	557	134.645895835043	52
3	561	134.721133238865	53
3	587	142.449356789718	54
3	595	145.278310025053	55
3	599	145.327436068649	56
3	631	155.936506150692	57
3	645	161.084533006611	58
3	671	167.593990151114	59
3	683	169.559623526812	60
3	691	170.931372679634	61
3	705	173.432483814996	62
3	709	173.473738721388	63
3	713	173.543480056852	64
3	729	176.865380517425	65
3	733	176.943226883514	66
3	737	176.978762190527	67
3	753	182.036701390055	68
3	763	185.326330675761	69
3	777	191.648027183171	70
3	787	194.233881681774	71
3	791	194.26910917286	72
3	811	201.629498299573	73
3	815	201.668492008499	74
3	829	204.530643247659	75
3	865	215.956720338168	76
3	875	218.717465753078	77
3	885	219.750480810893	78
3	895	221.334238409778	79
3	903	222.413082050148	80
3	919	229.904838749597	81
3	929	232.261366867009	82
3	945	235.399843328443	83
3	949	235.424132801447	84
3	955	237.249711497743	85
3	959	237.286941289504	86
4	23	5.152716182746	0
4	45	8.845288330451	1
4	69	15.932661735714	2
4	99	18.925992834951	3
4	125	24.671510062623	4
4	157	35.737371180635	5
4	187	43.181369117915	6
4	203	45.67892841325	7
4	229	54.779180999086	8
4	267	64.996996559003	9
4	317	78.804343402156	10
4	325	80.378993790644	11
4	373	92.695241296405	12
4	401	100.795368222769	13
4	411	103.900915150328	14
4	457	114.162829309285	15
4	473	121.301732616452	16
4	503	126.818987821981	17
4	525	130.371572290854	18
4	565	134.762305901269	19
4	649	161.118977474372	20
4	675	167.622276817415	21
4	685	169.572137037577	22
4	693	170.946348123029	23
4	723	175.355363053178	24
4	831	204.546557953853	25
4	877	218.728368320292	26
4	887	219.762670684299	27
4	921	229.925323311411	28
4	931	232.277658942985	29
4	963	237.334680485962	30
5	24	5.162716182746	0
5	70	15.942661735714	1
5	100	18.935992834951	2
5	126	24.681510062623	3
5	158	35.747371180635	4
5	188	43.191369117915	5
5	204	45.68892841325	6
5	230	54.789180999086	7
5	268	65.006996559003	8
5	318	78.814343402156	9
5	374	92.705241296405	10
5	402	100.805368222769	11
5	412	103.910915150328	12
5	458	114.172829309285	13
5	474	121.311732616452	14
5	504	126.828987821981	15
5	526	130.381572290854	16
5	566	134.772305901269	17
5	676	167.632276817415	18
5	686	169.582137037577	19
5	724	175.365363053178	20
5	832	204.556557953853	21
5	878	218.738368320292	22
5	932	232.287658942985	23
5	964	237.344680485962	24
6	31	7.712695440002	0
6	37	8.746178070169	1
6	41	8.781331548517	2
6	59	15.85744690379	3
6	79	18.741039955281	4
6	83	18.789890338307	5
6	87	18.819688543562	6
6	91	18.862465902397	7
6	119	24.596597731539	8
6	167	38.994500349725	9
6	173	40.067965398493	10
6	193	44.158151101392	11
6	225	54.749811036205	12
6	291	71.885541989092	13
6	305	76.175899981404	14
6	363	92.622985794315	15
6	367	92.660821313069	16
6	383	97.81738542266	17
6	387	97.866142898262	18
6	391	97.917645114072	19
6	433	112.9160178824	20
6	437	112.952795305316	21
6	445	114.041522913005	22
6	481	122.63544162313	23
6	485	122.662222615481	24
6	513	129.255464595193	25
6	531	131.968525028722	26
6	535	132.019189474416	27
6	543	133.262418121832	28
6	547	133.286770657757	29
6	579	141.304067138949	30
6	585	142.438713828813	31
6	597	145.29887680865	32
6	601	145.357006104119	33
6	643	161.07402699595	34
6	681	169.543503075715	35
6	699	172.382027809304	36
6	715	173.569545792712	37
6	731	176.878526334271	38
6	735	176.95387495508	39
6	765	185.353354309934	40
6	785	194.214728488515	41
6	789	194.253403279447	42
6	827	204.508655782594	43
6	841	207.77918509116	44
6	883	219.737633709978	45
6	901	222.379254646194	46
6	957	237.27493059326	47

