version 2
run General-0-20230921-23:17:26-8940
attr configname General
attr datetime 20230921-23:17:26
attr experiment General
attr inifile omnetpp.ini
attr iterationvars ""
attr iterationvarsf ""
attr measurement ""
attr network Network2
attr processid 8940
attr repetition 0
attr replication #0
attr resultdir results
attr runnumber 0
attr seedset 0
param Network2.node[*].transmissionTime "uniform(1s, 2s)"
param Network2.node[*].delayTime "uniform(0.01s, 0.2s)"
param Network2.node[*].processingTime exponential(0.01s)
param Network2.node[*].lossProbability 0.3

vector 0 Network2.node[0] txVector ETV
vector 1 Network2.node[1] txVector ETV
vector 2 Network2.node[3] txVector ETV
vector 3 Network2.node[2] txVector ETV
vector 4 Network2.node[6] txVector ETV
vector 5 Network2.node[4] txVector ETV
vector 6 Network2.node[5] rxVector ETV
0	1	0.114274565438	0
0	9	1.707119181827	1
0	11	3.670781945885	2
0	19	5.054223467205	3
0	21	6.702395343762	4
0	25	8.070636881124	5
0	33	9.940649026381	6
0	39	11.580570043372	7
0	45	12.995231984491	8
0	47	14.563665932818	9
0	61	15.582455730839	10
0	71	17.249222442117	11
0	77	18.883496495272	12
0	83	20.878796060878	13
0	85	22.502306166879	14
0	87	23.840313784388	15
0	95	25.515066106646	16
0	99	26.612167377798	17
0	107	28.584112376748	18
0	113	29.623300165711	19
0	117	31.311961351968	20
0	121	32.528783485135	21
0	133	34.037752446094	22
0	135	35.30248261041	23
0	139	36.700303362058	24
0	149	38.529243390383	25
0	161	39.925341668613	26
0	165	41.739139488274	27
0	175	43.320412364164	28
0	183	44.744267408112	29
0	187	46.362282835022	30
0	189	47.465146194986	31
0	199	48.557520081597	32
0	207	49.698783984483	33
0	215	51.618266597465	34
0	225	53.126582047744	35
0	233	54.546657415415	36
0	237	55.906635474489	37
0	243	57.246039290522	38
0	253	58.417025883292	39
0	267	59.917052177089	40
0	269	61.129442679072	41
0	271	62.351885902537	42
0	277	63.570635270402	43
0	279	65.251179964589	44
0	281	66.336475531645	45
0	291	67.392893866245	46
0	303	69.136728408588	47
0	305	70.157379413331	48
0	313	71.915758065255	49
0	327	73.788408722803	50
0	331	75.745859578792	51
0	337	76.899553882265	52
0	345	78.086012100875	53
0	351	79.802871780777	54
0	355	80.967830652212	55
0	363	82.733155904644	56
0	367	83.778770540681	57
0	371	85.019599317879	58
0	379	86.575248555121	59
0	401	88.087642020619	60
0	403	89.949951801289	61
0	417	91.730378450433	62
0	419	93.711078123961	63
0	427	95.11719861145	64
0	437	96.45034376772	65
0	443	97.983809443962	66
0	453	99.661221268427	67
0	455	100.917360851381	68
0	457	102.50929601521	69
0	465	103.985773219101	70
0	471	105.269292067576	71
0	479	106.929331929263	72
0	485	108.202153826205	73
0	499	109.917332575031	74
0	501	111.453510074484	75
0	505	113.134902586535	76
0	509	114.460587353053	77
0	513	115.589999690725	78
0	525	117.046911112572	79
0	531	118.763155284411	80
0	541	119.772921716402	81
0	547	121.348672873647	82
0	549	122.508087337556	83
0	553	124.136985777019	84
0	559	126.073732254168	85
0	573	127.380718306711	86
0	575	128.707419193422	87
0	577	129.940163325591	88
0	581	131.554628032332	89
0	585	133.067702898828	90
0	587	134.100168194927	91
0	589	135.680319914434	92
0	591	137.451408966517	93
0	593	138.827635547917	94
0	595	140.318660288656	95
0	609	142.300299968876	96
0	611	144.102136119109	97
0	613	145.172583308377	98
0	621	146.856156270791	99
0	629	148.410844082086	100
0	643	150.335810998295	101
0	647	151.441717156748	102
0	659	152.799824631846	103
0	661	154.5953593788	104
0	667	156.099292988263	105
0	675	157.837683325939	106
0	683	158.86230328244	107
0	685	160.53421030131	108
0	693	161.981726170357	109
0	695	163.949520842943	110
0	701	165.496405739642	111
0	705	166.90313908139	112
0	709	168.176147984879	113
0	721	169.424561445208	114
0	735	170.473251735864	115
0	739	171.81494984946	116
0	741	173.35862790358	117
0	753	174.641327550474	118
0	755	175.794955092089	119
0	759	177.220462728131	120
0	761	179.189326829815	121
0	763	180.88022055717	122
0	771	181.979636950025	123
0	779	183.626833601927	124
0	791	185.067499695185	125
0	809	186.158385424947	126
0	811	188.126671839578	127
0	813	190.046454650655	128
0	815	191.082488472879	129
0	825	192.25726048027	130
0	833	194.165136071228	131
0	835	196.043628701082	132
0	837	197.477784280506	133
0	839	198.995396382715	134
0	849	200.470064367242	135
0	853	201.473163910517	136
0	859	203.452690836582	137
0	881	204.515898451749	138
0	889	205.867791450191	139
0	891	207.632353427196	140
0	893	209.33060190904	141
0	895	210.666100083925	142
0	899	211.813785662018	143
0	907	212.95103701328	144
0	917	214.534441199229	145
0	923	215.682249870692	146
0	925	216.779507869697	147
0	929	218.27728477384	148
0	931	219.373847656725	149
0	935	221.358780962024	150
0	945	222.829401863348	151
0	951	224.100653940188	152
0	957	225.445372062344	153
0	961	226.877132187672	154
0	969	228.502490386209	155
0	979	229.907525996753	156
0	985	231.573203726514	157
0	993	232.574411298689	158
0	1001	233.593534196336	159
0	1003	235.130813225247	160
0	1005	236.405388275236	161
0	1007	237.414078194024	162
0	1009	238.439022923429	163
0	1011	239.583309022086	164
1	3	0.142870607559	0
1	13	3.696470907061	1
1	23	6.743897043049	2
1	27	8.119089099815	3
1	35	9.952196323186	4
1	41	11.593642846894	5
1	49	14.583279742209	6
1	63	15.603561705296	7
1	73	17.291151908538	8
1	79	18.902215653808	9
1	89	23.854129342822	10
1	97	25.543264295839	11
1	101	26.643220590806	12
1	109	28.597436479158	13
1	115	29.654542537681	14
1	119	31.330289787129	15
1	123	32.563639308705	16
1	137	35.320530584408	17
1	141	36.710350427463	18
1	151	38.561880726142	19
1	163	39.940391856091	20
1	167	41.770487792774	21
1	177	43.339736392968	22
1	185	44.759867018813	23
1	191	47.479516475124	24
1	201	48.568543287746	25
1	209	49.721310059732	26
1	217	51.630091983484	27
1	227	53.137101173266	28
1	235	54.569750399055	29
1	239	55.923360079657	30
1	245	57.262265263962	31
1	255	58.42754271235	32
1	273	62.370315690291	33
1	283	66.353166668882	34
1	293	67.409406173564	35
1	307	70.171236290271	36
1	315	71.928953811804	37
1	329	73.804790608859	38
1	333	75.768969302474	39
1	339	76.926034643997	40
1	347	78.101054900208	41
1	353	79.81420518701	42
1	357	80.991640283169	43
1	365	82.745502463137	44
1	369	83.789827412422	45
1	373	85.029692148123	46
1	381	86.593934212436	47
1	405	90.001970395551	48
1	421	93.729499486989	49
1	429	95.128044406368	50
1	439	96.463976189909	51
1	445	98.010439101769	52
1	459	102.52598904393	53
1	467	104.000552398976	54
1	473	105.281606277296	55
1	481	106.943965829538	56
1	487	108.218903335942	57
1	503	111.466761783189	58
1	507	113.146492706703	59
1	511	114.479236734147	60
1	515	115.621373907629	61
1	527	117.057185533576	62
1	533	118.776841113807	63
1	543	119.80011240952	64
1	551	122.523169532097	65
1	555	124.152916592992	66
1	561	126.085007989906	67
1	579	129.9504996648	68
1	583	131.575121453991	69
1	597	140.331466047918	70
1	615	145.187375435322	71
1	623	146.869539731978	72
1	631	148.421315074797	73
1	645	150.375960681017	74
1	649	151.456582348146	75
1	663	154.608872591615	76
1	669	156.117397919735	77
1	677	157.849294751727	78
1	687	160.556120115844	79
1	697	163.962734245972	80
1	703	165.514437107361	81
1	707	166.9482297169	82
1	711	168.193197478093	83
1	723	169.43748695122	84
1	737	170.4945293402	85
1	743	173.36893492131	86
1	757	175.828617994727	87
1	765	180.893642304086	88
1	773	181.998809667994	89
1	781	183.648388349214	90
1	793	185.080084287672	91
1	817	191.097417260563	92
1	827	192.269006758235	93
1	841	199.007434236537	94
1	851	200.489160074291	95
1	855	201.485083489537	96
1	861	203.472036640745	97
1	883	204.538678473041	98
1	897	210.676746919976	99
1	901	211.826805212053	100
1	909	212.988599144055	101
1	919	214.555990944565	102
1	927	216.798208668801	103
1	933	219.406537347591	104
1	937	221.370012066573	105
1	947	222.844573532619	106
1	953	224.123163426795	107
1	959	225.464904921656	108
1	963	226.911665246087	109
1	971	228.517688605658	110
1	981	229.917826824708	111
1	987	231.610884727091	112
1	995	232.591712518892	113
2	5	0.163252200566	0
2	37	9.976409969987	1
2	51	14.59579416153	2
2	91	23.866318148787	3
2	125	32.582218265116	4
2	145	36.742184725166	5
2	157	38.624535604505	6
2	179	43.353325665127	7
2	193	47.49805727248	8
2	219	51.660111848439	9
2	241	55.935591471738	10
2	247	57.276501834976	11
2	263	58.494936638287	12
2	275	62.387058135987	13
2	301	67.495773496204	14
2	317	71.941007289491	15
2	325	71.995060836434	16
2	335	75.785197595572	17
2	349	78.113079487845	18
2	359	81.004092264095	19
2	395	86.728578652832	20
2	451	98.076576333505	21
2	461	102.542079688483	22
2	469	104.026089853996	23
2	477	105.313767374603	24
2	493	108.294969196395	25
2	521	115.678135841621	26
2	545	119.858947399423	27
2	563	126.099980082769	28
2	617	145.208337360932	29
2	625	146.884898719931	30
2	633	148.435600150839	31
2	671	156.135350141748	32
2	681	157.882337004011	33
2	699	163.975727776001	34
2	725	169.469490244424	35
2	729	169.498665738818	36
2	749	173.415325476278	37
2	805	185.205597092144	38
2	819	191.115690519799	39
2	823	191.146551080481	40
2	869	203.554883017407	41
2	877	203.626213512027	42
2	885	204.565447820371	43
2	921	214.588893516764	44
2	955	224.137966344933	45
2	965	226.934624024252	46
2	975	228.555306286732	47
2	989	231.628311964588	48
2	997	232.614461033417	49
3	7	0.176783791957	0
3	17	3.722196480706	1
3	29	8.135278394411	2
3	53	14.634573311743	3
3	57	14.666296096578	4
3	67	15.634302607778	5
3	75	17.303494923726	6
3	81	18.918495069618	7
3	105	26.706839332517	8
3	127	32.595471669271	9
3	131	32.646544283882	10
3	143	36.728781257784	11
3	155	38.595801005706	12
3	171	41.806324401487	13
3	195	47.542782627273	14
3	205	48.618493202913	15
3	213	49.779966475754	16
3	221	51.678530658056	17
3	229	53.184200779185	18
3	249	57.295873222153	19
3	257	58.440259393053	20
3	261	58.471039867649	21
3	287	66.394699645635	22
3	295	67.427097371575	23
3	299	67.462084314496	24
3	309	70.190111309556	25
3	319	71.957097735618	26
3	323	71.982131321849	27
3	341	76.937284969896	28
3	375	85.055070435268	29
3	385	86.637313936384	30
3	389	86.666727727533	31
3	393	86.715111119794	32
3	397	86.740739614998	33
3	409	90.031989809317	34
3	413	90.056998025443	35
3	423	93.771899116658	36
3	433	95.164391983124	37
3	441	96.474804812638	38
3	449	98.053591877149	39
3	475	105.303043183502	40
3	491	108.252921108099	41
3	495	108.311418281307	42
3	519	115.662579252489	43
3	529	117.069930168796	44
3	537	118.823341139286	45
3	565	126.11202860544	46
3	569	126.140762558687	47
3	601	140.401580465085	48
3	605	140.441979824347	49
3	635	148.448573886118	50
3	639	148.526039514844	51
3	651	151.479701978957	52
3	655	151.507570481325	53
3	665	154.637147854293	54
3	679	157.871601940237	55
3	689	160.575386501847	56
3	713	168.206451645265	57
3	717	168.230777714899	58
3	727	169.483774654712	59
3	731	169.518404524733	60
3	747	173.39715954939	61
3	769	180.92971282788	62
3	775	182.026756399134	63
3	783	183.662452477881	64
3	787	183.713485966542	65
3	795	185.099847207902	66
3	799	185.142491239508	67
3	803	185.187801741856	68
3	821	191.1274396224	69
3	831	192.3107516625	70
3	845	199.062828132869	71
3	857	201.498552778369	72
3	863	203.487198675294	73
3	867	203.540766011628	74
3	871	203.573867041071	75
3	875	203.605449607433	76
3	905	211.850030460655	77
3	913	213.050137856546	78
3	941	221.402624149513	79
3	949	222.855180275621	80
3	973	228.540203695228	81
3	983	229.928917143344	82
4	15	3.711459627151	0
4	43	11.61699574874	1
4	55	14.650550772511	2
4	65	15.61494199218	3
4	103	26.690839863651	4
4	111	28.610948240052	5
4	129	32.623944945781	6
4	153	38.574404926071	7
4	169	41.789366406878	8
4	203	48.600792434318	9
4	211	49.749707387583	10
4	251	57.306196790199	11
4	259	58.453369071103	12
4	285	66.375085249919	13
4	297	67.449639404276	14
4	321	71.969524920555	15
4	377	85.073899240718	16
4	383	86.624849778162	17
4	387	86.649949707512	18
4	391	86.692782315164	19
4	407	90.018849830336	20
4	411	90.04346205969	21
4	431	95.15297072801	22
4	435	95.187323461712	23
4	447	98.025895678917	24
4	483	106.960125022376	25
4	489	108.236218789333	26
4	517	115.64748722762	27
4	535	118.793841370168	28
4	557	124.181823884536	29
4	567	126.129713231214	30
4	571	126.151727971477	31
4	599	140.387868847877	32
4	603	140.421762640873	33
4	637	148.493302443177	34
4	653	151.492882524409	35
4	715	168.21672045146	36
4	745	173.382496579126	37
4	767	180.914788414116	38
4	785	183.697651364819	39
4	797	185.13105875247	40
4	801	185.173031764347	41
4	829	192.288829140079	42
4	843	199.040268176881	43
4	865	203.504424697669	44
4	873	203.584885197491	45
4	903	211.838782529732	46
4	911	212.999138513619	47
4	915	213.07532154803	48
4	939	221.38711277003	49
5	31	8.156637783828	0
5	59	14.677341708836	1
5	69	15.652746885713	2
5	93	23.887180842596	3
5	147	36.755044934891	4
5	159	38.635770870979	5
5	173	41.818944973904	6
5	181	43.366722312453	7
5	197	47.558428732284	8
5	223	51.700485043719	9
5	231	53.196824072277	10
5	265	58.508675503246	11
5	289	66.404949529168	12
5	311	70.207444986288	13
5	343	76.950526961031	14
5	361	81.022126181722	15
5	399	86.750872867446	16
5	415	90.074158478623	17
5	425	93.787198732451	18
5	463	102.557913926193	19
5	497	108.329547264919	20
5	523	115.700162979459	21
5	539	118.834366658216	22
5	607	140.452655165916	23
5	619	145.237574746639	24
5	627	146.929605170736	25
5	641	148.538804242009	26
5	657	151.531385072123	27
5	673	156.173519259048	28
5	691	160.617639662684	29
5	719	168.274926963923	30
5	733	169.550740923244	31
5	751	173.426263030154	32
5	777	182.036926555371	33
5	789	183.728316496785	34
5	807	185.227013247379	35
5	847	199.076458604413	36
5	879	203.636596400005	37
5	887	204.583750426839	38
5	943	221.41302872907	39
5	967	226.948425214565	40
5	977	228.574628154138	41
5	991	231.686687839079	42
5	999	232.626982430181	43
6	32	8.166637783828	0
6	60	14.687341708836	1
6	70	15.662746885713	2
6	148	36.765044934891	3
6	160	38.645770870979	4
6	174	41.828944973904	5
6	182	43.376722312453	6
6	198	47.568428732284	7
6	224	51.710485043719	8
6	232	53.206824072277	9
6	266	58.518675503246	10
6	362	81.032126181722	11
6	400	86.760872867446	12
6	426	93.797198732451	13
6	464	102.567913926193	14
6	524	115.710162979459	15
6	540	118.844366658216	16
6	608	140.462655165916	17
6	620	145.247574746639	18
6	628	146.939605170736	19
6	674	156.183519259048	20
6	734	169.560740923244	21
6	752	173.436263030154	22
6	778	182.046926555371	23
6	790	183.738316496785	24
6	848	199.086458604413	25
6	880	203.646596400005	26
6	888	204.593750426839	27
6	944	221.42302872907	28
6	968	226.958425214565	29
6	978	228.584628154138	30
6	992	231.696687839079	31

