version 2
run General-3-20230921-23:17:26-8940
attr configname General
attr datetime 20230921-23:17:26
attr experiment General
attr inifile omnetpp.ini
attr iterationvars ""
attr iterationvarsf ""
attr measurement ""
attr network Network2
attr processid 8940
attr repetition 3
attr replication #3
attr resultdir results
attr runnumber 3
attr seedset 3
param Network2.node[*].transmissionTime "uniform(1s, 2s)"
param Network2.node[*].delayTime "uniform(0.01s, 0.2s)"
param Network2.node[*].processingTime exponential(0.01s)
param Network2.node[*].lossProbability 0.3

vector 0 Network2.node[0] txVector ETV
vector 1 Network2.node[1] txVector ETV
vector 2 Network2.node[3] txVector ETV
vector 3 Network2.node[6] txVector ETV
vector 4 Network2.node[2] txVector ETV
vector 5 Network2.node[4] txVector ETV
vector 6 Network2.node[5] rxVector ETV
0	1	0.114651601831	0
0	5	1.185376482154	1
0	9	2.69620408311	2
0	11	3.821789399092	3
0	13	5.029032277712	4
0	15	6.080499485671	5
0	21	7.521309324145	6
0	29	8.799796608114	7
0	37	10.202157250443	8
0	47	11.746806263063	9
0	55	13.419189941674	10
0	59	15.206328442158	11
0	65	16.431382944878	12
0	71	17.63473747375	13
0	73	19.44596523007	14
0	81	20.820089958213	15
0	101	22.303675491433	16
0	103	23.623170526536	17
0	107	24.644396266738	18
0	111	26.36833540334	19
0	113	28.294068187779	20
0	115	29.571391236806	21
0	117	30.747453352041	22
0	119	32.737754540588	23
0	121	34.43040515699	24
0	131	36.182545187022	25
0	147	38.109270871687	26
0	155	39.342962880922	27
0	161	40.432753748564	28
0	165	41.917847971968	29
0	167	43.490085591865	30
0	169	44.832505178708	31
0	173	46.442150893459	32
0	177	47.585483207904	33
0	179	48.842689585943	34
0	185	50.119331132692	35
0	199	51.771554257559	36
0	205	52.929224012956	37
0	211	54.625974000735	38
0	225	55.707545043273	39
0	233	57.204209997855	40
0	237	59.023752081511	41
0	239	60.722562083812	42
0	245	62.205059122365	43
0	251	63.297190712836	44
0	261	64.5286517435	45
0	271	65.634310948035	46
0	277	66.856687267615	47
0	283	68.333619031894	48
0	291	70.136447002019	49
0	293	71.212943282749	50
0	305	72.751735944839	51
0	307	74.540325081048	52
0	311	76.157779263172	53
0	313	77.188708459565	54
0	317	78.420806848982	55
0	321	79.451118206678	56
0	329	80.526906411469	57
0	335	81.70764674044	58
0	337	83.50096941863	59
0	349	85.135272888307	60
0	351	86.74686672476	61
0	357	87.788897578678	62
0	359	88.85926733802	63
0	363	90.698170745586	64
0	371	92.180017134015	65
0	381	94.024292765957	66
0	387	95.659065984961	67
0	389	97.58659526131	68
0	393	98.806931592365	69
0	395	100.152448930851	70
0	405	101.209321503135	71
0	409	102.973475746185	72
0	413	104.762308087739	73
0	421	106.180530895087	74
0	431	107.942646737983	75
0	433	109.617456674184	76
0	437	111.408310855813	77
0	447	113.391115626394	78
0	451	114.926091205868	79
0	455	116.338522272258	80
0	459	117.476332165142	81
0	461	118.884922009268	82
0	473	120.049521557362	83
0	477	121.540582868577	84
0	479	122.68617789897	85
0	481	124.223612275281	86
0	489	126.219398584058	87
0	499	127.615660759694	88
0	505	129.169093594727	89
0	507	131.060517268562	90
0	509	132.916065470157	91
0	511	134.244301823042	92
0	515	135.330545440623	93
0	517	136.86547077734	94
0	525	138.330007754806	95
0	527	139.526470720842	96
0	533	141.446940140407	97
0	545	142.775005882913	98
0	553	144.066937065292	99
0	555	145.354911725344	100
0	567	146.382549332995	101
0	569	148.102039838284	102
0	579	149.582731622811	103
0	585	151.077061194535	104
0	587	152.807034942163	105
0	597	154.231150842346	106
0	603	155.780387707129	107
0	611	157.307349964352	108
0	615	158.556039896402	109
0	621	159.713274578172	110
0	623	161.219240855499	111
0	633	162.280288923838	112
0	635	163.72796633521	113
0	641	165.233563297735	114
0	659	166.947937010629	115
0	667	168.740343306521	116
0	673	170.051892642938	117
0	685	171.99013106742	118
0	689	173.950995285838	119
0	693	175.298563475098	120
0	699	176.819140020601	121
0	703	178.653677204467	122
0	705	180.05057686994	123
0	707	181.374410962296	124
0	719	182.849367807695	125
0	727	184.683053326403	126
0	729	186.409684193163	127
0	733	188.310698742355	128
0	743	189.413954307866	129
0	745	190.565849146881	130
0	747	191.748096491285	131
0	749	193.457690084428	132
0	751	195.127712419099	133
0	753	196.565747255069	134
0	755	198.062814784079	135
0	767	200.002272668836	136
0	769	201.493936566712	137
0	773	203.337353411905	138
0	775	204.55882903685	139
0	785	205.799358624575	140
0	789	207.154132894083	141
0	795	208.863472912536	142
0	805	210.823111479013	143
0	815	212.268112271401	144
0	817	213.361359853373	145
0	819	214.924035913386	146
0	823	216.599996962427	147
0	829	218.409673860139	148
0	833	219.55276637788	149
0	843	221.375755396514	150
0	845	223.288653233862	151
0	849	224.831650903523	152
0	857	226.010939482208	153
0	859	227.793979829019	154
0	869	229.576325760065	155
0	871	230.620803263346	156
0	875	231.871895799255	157
0	877	233.741361464448	158
0	889	235.701902700895	159
0	897	237.431401920346	160
0	903	239.168812241945	161
1	3	0.14297423212	0
1	7	1.217720790617	1
1	17	6.090802801668	2
1	23	7.542587312263	3
1	31	8.817843474436	4
1	39	10.227312845374	5
1	49	11.780119617843	6
1	57	13.441692404225	7
1	61	15.2215459584	8
1	67	16.451985446601	9
1	75	19.45674700911	10
1	83	20.83458689056	11
1	105	23.639756936835	12
1	109	24.660841524789	13
1	123	34.441640589571	14
1	133	36.210820694666	15
1	149	38.121538342652	16
1	157	39.359674257675	17
1	163	40.448828570551	18
1	171	44.843790530426	19
1	175	46.457497414479	20
1	181	48.855589653809	21
1	187	50.160669476324	22
1	201	51.78791561387	23
1	207	52.953023467325	24
1	213	54.639651124611	25
1	227	55.72971021147	26
1	235	57.217812501013	27
1	241	60.735945520385	28
1	247	62.217491940441	29
1	253	63.313053169585	30
1	263	64.544432135374	31
1	273	65.648723099286	32
1	279	66.873949877052	33
1	285	68.366722261937	34
1	295	71.223729023321	35
1	309	74.559278351311	36
1	315	77.198836834976	37
1	319	78.436997421066	38
1	323	79.464325111266	39
1	331	80.550525528409	40
1	339	83.525267332252	41
1	353	86.762266984722	42
1	361	88.880988080445	43
1	365	90.721477199972	44
1	373	92.195230561116	45
1	383	94.038452959166	46
1	391	97.59949785256	47
1	397	100.174997616048	48
1	407	101.221623682693	49
1	411	103.006084375854	50
1	415	104.809174345046	51
1	423	106.192433122048	52
1	435	109.668019934738	53
1	439	111.427905858414	54
1	449	113.412858591845	55
1	453	114.970122262487	56
1	457	116.348543550488	57
1	463	118.899444834115	58
1	475	120.073377321434	59
1	483	124.234115279777	60
1	491	126.234280623298	61
1	501	127.631097570525	62
1	513	134.258497655037	63
1	519	136.875537944601	64
1	529	139.541989753737	65
1	535	141.461170630412	66
1	547	142.788459446525	67
1	557	145.365998551309	68
1	571	148.112919647489	69
1	581	149.60023949584	70
1	589	152.823122126228	71
1	599	154.244790879487	72
1	605	155.794565259861	73
1	613	157.323267415195	74
1	617	158.566326917032	75
1	625	161.23119814527	76
1	637	163.742933947774	77
1	643	165.245433954944	78
1	661	166.959278124159	79
1	669	168.750965900195	80
1	675	170.065425043387	81
1	687	172.016670820981	82
1	691	173.970026137553	83
1	695	175.32183398685	84
1	701	176.831069809442	85
1	709	181.404585642774	86
1	721	182.865084856493	87
1	731	186.429261451553	88
1	735	188.326265668384	89
1	757	198.111508732681	90
1	771	201.510328596011	91
1	777	204.578115653577	92
1	787	205.810686344175	93
1	791	207.175468815738	94
1	797	208.875959106311	95
1	807	210.835974200037	96
1	821	214.944065805313	97
1	825	216.615488071424	98
1	831	218.437053939835	99
1	835	219.57794391716	100
1	847	223.304040651524	101
1	851	224.844460967839	102
1	861	227.80972514003	103
1	873	230.63351906238	104
1	879	233.760753331381	105
1	891	235.714904365647	106
1	899	237.458465941826	107
1	905	239.180378241739	108
2	19	6.10683901683	0
2	33	8.839657043252	1
2	43	10.255201078553	2
2	51	11.795211070808	3
2	77	19.468995693419	4
2	127	34.480382978758	5
2	151	38.167329041033	6
2	183	48.883622690926	7
2	189	50.178590994682	8
2	193	50.231301467191	9
2	209	52.97653592151	10
2	215	54.662639531409	11
2	219	54.685138458238	12
2	223	54.736597457047	13
2	231	55.761769398108	14
2	243	60.757907738408	15
2	259	63.374760014151	16
2	287	68.398284747303	17
2	297	71.239412410644	18
2	301	71.271638845577	19
2	325	79.479817734281	20
2	333	80.569613796003	21
2	341	83.540549088384	22
2	345	83.562123807689	23
2	367	90.741083404994	24
2	375	92.225401141315	25
2	429	106.246801576638	26
2	441	111.448422444282	27
2	445	111.480765917786	28
2	485	124.25429381842	29
2	493	126.251765190556	30
2	537	141.473023108426	31
2	541	141.513067173929	32
2	573	148.131216690367	33
2	577	148.160924494995	34
2	595	152.878335912116	35
2	601	154.255729508841	36
2	629	161.288098362934	37
2	639	163.762705981088	38
2	649	165.317678837014	39
2	681	170.125800785085	40
2	711	181.437890269163	41
2	793	207.196978779578	42
2	827	216.651174524702	43
2	839	219.623984780938	44
2	883	233.809642893184	45
3	25	7.577040493778	0
3	63	15.234682599823	1
3	87	20.873592697081	2
3	91	20.908425095726	3
3	95	20.940135374966	4
3	137	36.256423001544	5
3	141	36.297262774257	6
3	145	36.340812019915	7
3	197	50.270556726898	8
3	249	62.231270240354	9
3	255	63.324057638052	10
3	267	64.580691078653	11
3	355	86.784510650975	12
3	399	100.197582458569	13
3	403	100.229471272844	14
3	425	106.210381112685	15
3	467	118.950998908102	16
3	471	118.990597777397	17
3	503	127.670212827059	18
3	521	136.893297815368	19
3	559	145.380808388855	20
3	563	145.423017809201	21
3	583	149.611169216139	22
3	591	152.841132590372	23
3	607	155.815835485249	24
3	619	158.598284003464	25
3	645	165.277957570348	26
3	653	165.363379978541	27
3	663	166.986596734462	28
3	677	170.082159682732	29
3	697	175.342185209691	30
3	715	181.479458078114	31
3	725	182.926053545805	32
3	737	188.347605138209	33
3	759	198.135888922717	34
3	763	198.170737202801	35
3	779	204.624726766089	36
3	799	208.887322158662	37
3	809	210.85707978642	38
3	863	227.825710241234	39
3	901	237.475943632819	40
4	27	7.595224289634	0
4	41	10.240291318233	1
4	69	16.470810450256	2
4	85	20.85184554942	3
4	89	20.887394831408	4
4	93	20.92619298399	5
4	97	20.951673874591	6
4	125	34.462595499449	7
4	135	36.24211632275	8
4	139	36.277220688123	9
4	143	36.328625725142	10
4	159	39.373218273743	11
4	191	50.189185644684	12
4	195	50.258693027007	13
4	203	51.802081205327	14
4	217	54.67363642362	15
4	221	54.705624494298	16
4	229	55.749476024054	17
4	257	63.34984489559	18
4	265	64.558634276674	19
4	269	64.592189736705	20
4	275	65.665996022092	21
4	281	66.901610857272	22
4	299	71.258166583849	23
4	303	71.291281493186	24
4	343	83.550553877686	25
4	369	90.770537158107	26
4	377	92.236518745261	27
4	385	94.056808860236	28
4	401	100.214065949053	29
4	417	104.82622826881	30
4	427	106.221138235464	31
4	443	111.462300632067	32
4	465	118.918793041032	33
4	469	118.970820766994	34
4	495	126.266017813907	35
4	523	136.920461990563	36
4	531	139.558551423145	37
4	539	141.493821417792	38
4	549	142.815999873483	39
4	561	145.400434153767	40
4	565	145.433467743703	41
4	575	148.144555544744	42
4	593	152.864527951174	43
4	609	155.829278463889	44
4	627	161.245150722729	45
4	647	165.291303223276	46
4	651	165.34777713865	47
4	655	165.376898209018	48
4	665	167.006995824026	49
4	671	168.771894011233	50
4	679	170.101369719749	51
4	713	181.466521544037	52
4	717	181.499936659188	53
4	723	182.901123047746	54
4	739	188.36139838507	55
4	761	198.159124284666	56
4	765	198.182442017143	57
4	781	204.657721721593	58
4	801	208.904030373392	59
4	811	210.873277234258	60
4	837	219.608871981598	61
4	841	219.635437260328	62
4	853	224.861852892877	63
4	865	227.845302117646	64
4	881	233.792909219091	65
4	885	233.848090776276	66
4	893	235.736182103803	67
5	35	8.852871777589	0
5	45	10.265409378022	1
5	53	11.806178570091	2
5	79	19.497386793189	3
5	99	20.964453508071	4
5	129	34.497850800367	5
5	153	38.179414680161	6
5	289	68.411939414897	7
5	327	79.494776415041	8
5	347	83.586782972557	9
5	379	92.257653068368	10
5	419	104.843990777621	11
5	487	124.264695388996	12
5	497	126.288677273077	13
5	543	141.528607192612	14
5	551	142.827654084389	15
5	631	161.306226685114	16
5	657	165.388039431296	17
5	683	170.154268627632	18
5	741	188.378909647097	19
5	783	204.682086589534	20
5	803	208.920316450537	21
5	813	210.883495628943	22
5	855	224.87773117571	23
5	867	227.863609766576	24
5	887	233.864825686092	25
5	895	235.749609828641	26
6	36	8.862871777589	0
6	54	11.816178570091	1
6	80	19.507386793189	2
6	100	20.974453508071	3
6	130	34.507850800367	4
6	154	38.189414680161	5
6	380	92.267653068368	6
6	420	104.853990777621	7
6	488	124.274695388996	8
6	498	126.298677273077	9
6	544	141.538607192612	10
6	552	142.837654084389	11
6	632	161.316226685114	12
6	658	165.398039431296	13
6	684	170.164268627632	14
6	742	188.388909647097	15
6	856	224.88773117571	16
6	888	233.874825686092	17
6	896	235.759609828641	18

