version 2
run General-3-20230921-23:29:07-9477
attr configname General
attr datetime 20230921-23:29:07
attr experiment General
attr inifile omnetpp.ini
attr iterationvars ""
attr iterationvarsf ""
attr measurement ""
attr network Network3
attr processid 9477
attr repetition 3
attr replication #3
attr resultdir results
attr runnumber 3
attr seedset 3
param Network3.node[*].transmissionTime "uniform(1s, 2s)"
param Network3.node[*].delayTime "uniform(0.01s, 0.2s)"
param Network3.node[*].processingTime exponential(0.01s)
param Network3.node[0].lossProbability 0
param Network3.node[1].lossProbability 0.2
param Network3.node[2].lossProbability 0.2
param Network3.node[3].lossProbability "0.2 / 2"
param Network3.node[4].lossProbability "0.2 / 2"
param Network3.node[6].lossProbability "0.2 * 2"
param Network3.node[7].lossProbability "0.2 * 2"
param Network3.node[5].lossProbability "0.2 * 3"

vector 0 Network3.node[0] txVector ETV
vector 1 Network3.node[1] txVector ETV
vector 2 Network3.node[4] txVector ETV
vector 3 Network3.node[7] txVector ETV
vector 4 Network3.node[2] txVector ETV
vector 5 Network3.node[3] txVector ETV
vector 6 Network3.node[6] txVector ETV
vector 7 Network3.node[5] rxVector ETV
0	1	0.114651601831	0
0	9	1.822799424012	1
0	15	3.030042302632	2
0	25	4.483214602177	3
0	31	5.898315798328	4
0	37	7.352923563285	5
0	43	8.740894820377	6
0	51	10.549824019963	7
0	57	11.57294158854	8
0	65	12.864734361949	9
0	67	14.319356444128	10
0	79	16.079934934456	11
0	87	17.396219468046	12
0	89	18.538818814395	13
0	101	19.781494235922	14
0	109	20.854056373308	15
0	111	22.04187119829	16
0	117	23.707495805877	17
0	129	25.634221490542	18
0	135	27.000162075343	19
0	153	28.203039723518	20
0	155	30.095432915794	21
0	157	31.13435101353	22
0	163	32.548477934742	23
0	173	34.446214963983	24
0	185	35.529085978701	25
0	203	36.593759171966	26
0	205	38.435112943708	27
0	215	40.315237732672	28
0	223	41.421159457483	29
0	229	43.349658303962	30
0	237	44.628952905138	31
0	245	46.403920723193	32
0	249	48.104432504226	33
0	259	49.16007405014	34
0	261	50.422501398085	35
0	267	51.901416844057	36
0	269	53.185106293831	37
0	279	54.723898955921	38
0	287	56.178210736785	39
0	291	57.209139933178	40
0	293	58.483777402734	41
0	307	59.945325556511	42
0	309	61.722087590789	43
0	317	62.949800488839	44
0	319	64.095090447294	45
0	323	65.864224138737	46
0	331	67.190488144124	47
0	345	69.02939155169	48
0	355	70.896345242226	49
0	359	72.462726717649	50
0	363	74.278995966373	51
0	365	75.465946961727	52
0	371	77.180833629167	53
0	379	78.612351853701	54
0	393	80.355455423307	55
0	399	81.428372512872	56
0	411	83.057214664596	57
0	419	84.23621511373	58
0	421	85.958657316233	59
0	427	87.16836375587	60
0	437	88.775707490112	61
0	443	90.713302497355	62
0	445	92.218486966168	63
0	449	93.521306800492	64
0	461	95.267977894818	65
0	463	96.687370843788	66
0	469	98.10098983331	67
0	471	99.293736807139	68
0	475	100.636416072793	69
0	477	102.591860446216	70
0	483	103.984332360396	71
0	489	105.205006013926	72
0	495	106.533071756432	73
0	497	107.570208710455	74
0	509	109.173508973163	75
0	511	110.186591783142	76
0	519	111.289576695137	77
0	525	112.33357295168	78
0	539	113.697206817636	79
0	547	115.242610382916	80
0	555	116.31629404479	81
0	561	117.870498133891	82
0	567	119.536978862083	83
0	571	121.425699186113	84
0	573	123.37493621099	85
0	583	125.07044250129	86
0	589	126.687683658509	87
0	591	128.385412104495	88
0	599	130.046644570606	89
0	605	131.52962691623	90
0	609	133.314322760629	91
0	615	135.1373679755	92
0	617	136.197728832087	93
0	621	137.981979298007	94
0	633	139.417365876094	95
0	645	140.983200209283	96
0	651	142.817737393149	97
0	659	144.292694238548	98
0	665	145.561671022859	99
0	673	147.400176601552	100
0	675	149.126807468312	101
0	681	150.965758836663	102
0	693	152.643998073947	103
0	705	153.762160141787	104
0	721	154.783619894015	105
0	729	156.067860079298	106
0	731	157.210992209448	107
0	739	159.129325443713	108
0	741	160.595991606425	109
0	749	162.040992398813	110
0	755	164.019254017688	111
0	763	165.180834188193	112
0	777	167.155273049671	113
0	789	168.808676298542	114
0	797	170.146853697553	115
0	805	171.651496720101	116
0	821	173.62421220245	117
0	823	174.914412518332	118
0	829	176.651822839931	119
0	831	177.976215840385	120
0	837	179.206102237406	121
0	847	180.305200395941	122
0	849	181.740567594369	123
0	857	183.515014778425	124
0	863	184.844144434736	125
0	875	185.951225046369	126
0	885	187.497183010748	127
0	893	189.146448602502	128
0	901	190.224074015462	129
0	903	191.968824640217	130
0	909	193.50670338359	131
0	915	195.419407863936	132
0	921	196.798423953189	133
0	927	198.18315918308	134
0	929	199.520415834452	135
0	937	201.210684041793	136
0	941	202.633896107154	137
0	949	204.458792038795	138
0	957	205.777140629312	139
0	963	207.430686379384	140
0	965	208.659600724999	141
0	975	209.737740014048	142
0	977	210.900746706241	143
0	987	212.521548901984	144
0	989	213.543819046413	145
0	1003	215.060218191307	146
0	1009	217.045322972184	147
0	1021	218.778336667057	148
0	1035	219.886635447686	149
0	1047	220.943783075848	150
0	1053	222.529157163176	151
0	1057	223.864590880062	152
0	1063	225.188157168284	153
0	1069	226.775254136018	154
0	1077	228.743610760962	155
0	1079	230.11256423995	156
0	1081	231.801368592373	157
0	1087	233.18024278299	158
0	1101	235.14258568205	159
0	1111	236.828778283038	160
0	1127	238.602785755015	161
0	1129	239.653522443325	162
1	3	0.128089255914	0
1	27	4.496548722622	1
1	33	5.922490150587	2
1	45	8.755986273342	3
1	59	11.589060696977	4
1	81	16.108500288739	5
1	103	19.793712879935	6
1	113	22.055869578359	7
1	119	23.735771313521	8
1	131	25.652269980893	9
1	159	31.144854571134	10
1	217	40.328610716247	11
1	225	41.435670511271	12
1	239	44.641577419302	13
1	251	48.128009078539	14
1	263	50.433144431348	15
1	281	54.738976208789	16
1	289	56.190851673438	17
1	311	61.748949830815	18
1	321	64.105343884685	19
1	333	67.212208886549	20
1	347	69.050661564045	21
1	361	72.490055977173	22
1	367	75.481298466968	23
1	373	77.215412044206	24
1	381	78.627768531051	25
1	401	81.447458333378	26
1	413	83.079229505824	27
1	423	85.971098910549	28
1	429	87.209604676474	29
1	439	88.800389248799	30
1	465	96.721960863178	31
1	473	99.303797561746	32
1	479	102.670340598241	33
1	485	104.013378036518	34
1	513	110.202770214161	35
1	569	119.548661864512	36
1	593	128.404057695937	37
1	601	130.058430910661	38
1	607	131.546534520968	39
1	619	136.224031163739	40
1	635	139.431268022734	41
1	653	142.847912073627	42
1	667	145.572788644007	43
1	677	149.15025361659	44
1	683	150.998789291146	45
1	723	154.799330641705	46
1	751	162.051971257154	47
1	757	164.045844338815	48
1	765	165.192310827542	49
1	791	168.820991440196	50
1	825	174.941476539812	51
1	839	179.227521184568	52
1	851	181.76963014886	53
1	859	183.526356286087	54
1	877	185.965878988926	55
1	887	187.51428922593	56
1	895	189.172300906911	57
1	911	193.520097424017	58
1	923	196.811873164556	59
1	931	199.534106747088	60
1	943	202.644083239062	61
1	951	204.505440310759	62
1	959	205.7893104271	63
1	1005	215.085763890588	64
1	1011	217.085332772741	65
1	1065	225.202583320856	66
1	1071	226.786081978909	67
1	1083	231.818358704329	68
1	1103	235.155685382814	69
2	5	0.146512953746	0
2	13	1.855196468151	1
2	19	3.063748359541	2
2	23	3.116385336912	3
2	29	4.515382602067	4
2	41	7.402012287189	5
2	55	10.579947398674	6
2	71	14.340928089612	7
2	75	14.379131487064	8
2	93	18.594647937027	9
2	97	18.632203371204	10
2	121	23.767066941605	11
2	125	23.820341624576	12
2	139	27.070979481679	13
2	143	27.104027974613	14
2	147	27.134209704212	15
2	151	27.163157078572	16
2	161	31.158093075071	17
2	167	32.597072913542	18
2	171	32.622196405143	19
2	177	34.515722346306	20
2	181	34.539301877468	21
2	189	35.586030409487	22
2	193	35.611427685791	23
2	197	35.6454129848	24
2	201	35.677401055478	25
2	209	38.480921484825	26
2	213	38.520337435667	27
2	233	43.38559609739	28
2	241	44.657357811176	29
2	257	48.182238237407	30
2	273	53.255401873474	31
2	277	53.320958284245	32
2	297	58.508757894541	33
2	301	58.550488509864	34
2	305	58.584581648242	35
2	313	61.769112402407	36
2	327	65.895823891923	37
2	335	67.228783721882	38
2	339	67.273659256554	39
2	343	67.315354411864	40
2	349	69.073227534572	41
2	353	69.103556415615	42
2	369	75.506859536099	43
2	375	77.248509236317	44
2	383	78.657617490113	45
2	387	78.679422111338	46
2	391	78.716030794419	47
2	397	80.385291410967	48
2	407	81.503734461627	49
2	415	83.090167064656	50
2	425	85.985621735396	51
2	431	87.224630949524	52
2	435	87.265508720614	53
2	441	88.810488306043	54
2	453	93.553961039874	55
2	457	93.609731232663	56
2	487	104.033036189017	57
2	493	105.231088981945	58
2	501	107.605434624705	59
2	505	107.646428615275	60
2	523	111.317825293318	61
2	529	112.37473298613	62
2	533	112.404268876314	63
2	537	112.438411014102	64
2	543	113.753289074803	65
2	551	115.279874882738	66
2	559	116.351007248818	67
2	565	117.948249936758	68
2	577	123.40812764427	69
2	581	123.437038150189	70
2	587	125.108109253267	71
2	613	133.340314716559	72
2	625	138.018040849749	73
2	629	138.0572477782	74
2	641	139.499937109861	75
2	649	141.010186715162	76
2	663	144.326109353699	77
2	679	149.181357457904	78
2	685	151.028534053107	79
2	689	151.062755656641	80
2	697	152.706125978052	81
2	701	152.753741530037	82
2	709	153.826217249003	83
2	713	153.85247247809	84
2	717	153.898171156353	85
2	735	157.237511391182	86
2	745	160.629959913832	87
2	759	164.058661751871	88
2	767	165.218157774558	89
2	771	165.264256697496	90
2	775	165.320795616783	91
2	781	167.182286837847	92
2	785	167.216800797982	93
2	793	168.8369765414	94
2	801	170.186699284243	95
2	809	171.690018737224	96
2	813	171.720407164169	97
2	817	171.760481627623	98
2	827	174.958954230805	99
2	835	178.008710559443	100
2	841	179.267407869424	101
2	845	179.290404984023	102
2	867	184.875056058377	103
2	871	184.908204995324	104
2	879	185.97791442947	105
2	883	186.041612124645	106
2	907	192.027109619107	107
2	913	193.530190565486	108
2	919	195.462204582742	109
2	925	196.827343809222	110
2	969	208.697515668579	111
2	973	208.721541365663	112
2	981	210.994737789184	113
2	985	211.03433402563	114
2	993	213.571401633741	115
2	997	213.597181721705	116
2	1001	213.629396636249	117
2	1013	217.103520805912	118
2	1017	217.16230474955	119
2	1025	218.808067477031	120
2	1029	218.841041114469	121
2	1033	218.874643135142	122
2	1039	219.928231380334	123
2	1043	219.982922491854	124
2	1051	220.98477937389	125
2	1061	223.910752971447	126
2	1067	225.216192244083	127
2	1091	233.232463171277	128
2	1095	233.27744667979	129
2	1099	233.317770759111	130
2	1105	235.174704225562	131
2	1109	235.233564167111	132
2	1115	236.87871001066	133
2	1119	236.958966022397	134
2	1123	236.996469500415	135
3	7	0.179174819169	0
3	21	3.098201541056	1
3	73	14.356832198596	2
3	77	14.395244065934	3
3	95	18.615159792183	4
3	99	18.651283218862	5
3	123	23.79552507708	6
3	127	23.854872828315	7
3	141	27.08731659786	8
3	145	27.117571990681	9
3	149	27.151206494685	10
3	169	32.611469273297	11
3	179	34.527586046197	12
3	183	34.571894291895	13
3	191	35.597750561915	14
3	195	35.634416092589	15
3	199	35.656915019418	16
3	211	38.493214858879	17
3	221	40.363956370843	18
3	235	43.41373075907	19
3	243	44.671559952476	20
3	255	48.16497562797	21
3	275	53.272289099956	22
3	285	54.77115233119	23
3	299	58.527389266091	24
3	303	58.560962531302	25
3	315	61.806596778321	26
3	329	65.921968207218	27
3	337	67.257391408271	28
3	341	67.287726660338	29
3	351	69.089396222406	30
3	377	77.261146078668	31
3	385	78.668201200706	32
3	389	78.698398615838	33
3	405	81.485899815216	34
3	409	81.519106144111	35
3	417	83.134198121275	36
3	433	87.245731710211	37
3	455	93.591996217917	38
3	459	93.620252379311	39
3	503	107.618888188317	40
3	507	107.658082826181	41
3	517	110.283088728332	42
3	531	112.387085793651	43
3	535	112.425457831732	44
3	545	113.777582842922	45
3	553	115.291818056204	46
3	579	123.422584502981	47
3	627	138.032816712864	48
3	631	138.085715620747	49
3	639	139.476666598109	50
3	643	139.514116207437	51
3	687	151.05074370299	52
3	691	151.073444549568	53
3	699	152.730506168088	54
3	703	152.765354448172	55
3	711	153.839721138944	56
3	715	153.886985997312	57
3	719	153.951999483788	58
3	727	154.833811605597	59
3	737	157.254219605912	60
3	747	160.64615736167	61
3	761	164.094348205149	62
3	769	165.238000795045	63
3	773	165.307700545061	64
3	783	167.197497322917	65
3	787	167.233807966843	66
3	795	168.856568417812	67
3	803	170.199815851833	68
3	811	171.70427533992	69
3	815	171.732458173939	70
3	819	171.787785566773	71
3	843	179.278743128248	72
3	869	184.894196793457	73
3	873	184.933474524119	74
3	881	185.989139480884	75
3	891	187.554611153117	76
3	947	202.677922643509	77
3	971	208.710010805476	78
3	983	211.017329221954	79
3	995	213.58502327212	80
3	999	213.617799228501	81
3	1015	217.139261242327	82
3	1019	217.182037076521	83
3	1027	218.818456838518	84
3	1031	218.861820174344	85
3	1041	219.955748613211	86
3	1045	220.002502666289	87
3	1093	233.248747090125	88
3	1097	233.293626254622	89
3	1107	235.2006123817	90
3	1117	236.945481634223	91
3	1121	236.979267103102	92
3	1125	237.022686822787	93
4	11	1.833327813189	0
4	17	3.042470371423	1
4	39	7.390472411413	2
4	53	10.563618591354	3
4	69	14.330015383072	4
4	91	18.584433394572	5
4	137	27.041943309741	6
4	165	32.576510971859	7
4	175	34.48833078649	8
4	187	35.559045785746	9
4	207	38.461155672241	10
4	231	43.36529380195	11
4	247	46.432281667693	12
4	271	53.195892034403	13
4	295	58.495550989953	14
4	325	65.8829931586	15
4	357	70.906619281792	16
4	395	80.374846602359	17
4	447	92.24198903522	18
4	451	93.53982638407	19
4	491	105.219236503931	20
4	499	107.589873513252	21
4	521	111.301272716238	22
4	527	112.350318300337	23
4	541	113.738782547341	24
4	549	115.260137997581	25
4	557	116.337564270178	26
4	563	117.912497238587	27
4	575	123.394230239816	28
4	585	125.088337219953	29
4	611	133.32929375456	30
4	623	138.007451395275	31
4	647	140.995129998124	32
4	661	144.305630772625	33
4	695	152.65743202945	34
4	707	153.778926266105	35
4	733	157.226148338831	36
4	743	160.608854327449	37
4	779	167.166166963386	38
4	799	170.157308667264	39
4	807	171.677158648586	40
4	833	177.987186756755	41
4	865	184.863289817596	42
4	905	192.011244998445	43
4	917	195.435377815685	44
4	939	201.247624095523	45
4	967	208.684341142862	46
4	979	210.949038828691	47
4	991	213.560901870629	48
4	1023	218.796538814542	49
4	1037	219.898943178095	50
4	1049	220.957933670984	51
4	1055	222.540245335934	52
4	1059	223.886609946218	53
4	1089	233.201025628834	54
4	1113	236.848210627199	55
5	35	5.936148223352	0
5	47	8.766953772625	1
5	61	11.60992811518	2
5	83	16.12265315047	3
5	105	19.850070399251	4
5	115	22.078151570874	5
5	133	25.679873874871	6
5	219	40.34199415282	7
5	227	41.464529272017	8
5	253	48.15327649032	9
5	265	50.464691658657	10
5	283	54.752199060927	11
5	403	81.467433669661	12
5	467	96.73238592688	13
5	481	102.702302408448	14
5	515	110.251123217864	15
5	595	128.414205937145	16
5	603	130.082080340394	17
5	637	139.465292247211	18
5	655	142.881216700016	19
5	669	145.59059290257	20
5	725	154.812475683942	21
5	753	162.062013894285	22
5	853	181.791838195705	23
5	861	183.543950776672	24
5	889	187.528115937875	25
5	897	189.192033420119	26
5	933	199.554877687787	27
5	945	202.660801706792	28
5	953	204.519151257199	29
5	961	205.802335052964	30
5	1007	215.109323673411	31
5	1073	226.798385029231	32
5	1085	231.851075629909	33
6	49	8.792424908243	0
6	63	11.623261716072	1
6	85	16.150147513591	2
6	107	19.861454906701	3
6	597	128.430159856606	4
6	657	142.90984797489	5
6	671	145.608549283143	6
6	855	181.804562587805	7
6	899	189.210290959805	8
6	935	199.565383935992	9
6	955	204.551129867814	10
6	1075	226.821045941198	11
7	50	8.802424908243	0
7	78	14.405244065934	1
7	128	23.864872828315	2
7	244	44.681559952476	3
7	378	77.271146078668	4
7	508	107.668082826181	5
7	518	110.293088728332	6
7	598	128.440159856606	7
7	632	138.095715620747	8
7	720	153.961999483788	9
7	738	157.264219605912	10
7	748	160.65615736167	11
7	796	168.866568417812	12
7	820	171.797785566773	13
7	892	187.564611153117	14
7	936	199.575383935992	15
7	1020	217.192037076521	16
7	1046	220.012502666289	17

