version 2
run General-0-20230921-23:29:07-9477
attr configname General
attr datetime 20230921-23:29:07
attr experiment General
attr inifile omnetpp.ini
attr iterationvars ""
attr iterationvarsf ""
attr measurement ""
attr network Network3
attr processid 9477
attr repetition 0
attr replication #0
attr resultdir results
attr runnumber 0
attr seedset 0
param Network3.node[*].transmissionTime "uniform(1s, 2s)"
param Network3.node[*].delayTime "uniform(0.01s, 0.2s)"
param Network3.node[*].processingTime exponential(0.01s)
param Network3.node[0].lossProbability 0
param Network3.node[1].lossProbability 0.2
param Network3.node[2].lossProbability 0.2
param Network3.node[3].lossProbability "0.2 / 2"
param Network3.node[4].lossProbability "0.2 / 2"
param Network3.node[6].lossProbability "0.2 * 2"
param Network3.node[7].lossProbability "0.2 * 2"
param Network3.node[5].lossProbability "0.2 * 3"

vector 0 Network3.node[0] txVector ETV
vector 1 Network3.node[2] txVector ETV
vector 2 Network3.node[4] txVector ETV
vector 3 Network3.node[7] txVector ETV
vector 4 Network3.node[1] txVector ETV
vector 5 Network3.node[5] rxVector ETV
vector 6 Network3.node[3] txVector ETV
vector 7 Network3.node[6] txVector ETV
0	1	0.114274565438	0
0	11	1.82946393041	1
0	19	3.102120224927	2
0	21	4.439516386558	3
0	29	5.459734785678	4
0	37	6.921214148477	5
0	39	8.443062476656	6
0	47	9.916662899387	7
0	59	11.066337763174	8
0	65	12.719477795372	9
0	73	14.083188568782	10
0	89	15.24449807995	11
0	93	16.341599351102	12
0	101	18.318058816324	13
0	109	19.600865775793	14
0	117	20.665013276813	15
0	119	22.240959771983	16
0	127	23.518678336013	17
0	133	24.916499087661	18
0	151	26.594315626965	19
0	159	28.361339329583	20
0	169	29.949804412973	21
0	179	31.251379229202	22
0	183	32.605425893636	23
0	189	34.574387659626	24
0	197	36.010252578957	25
0	203	37.724493877338	26
0	211	39.232809327617	27
0	213	40.266031713998	28
0	219	41.963460486457	29
0	229	42.98008845591	30
0	231	44.180084981332	31
0	239	45.351071574102	32
0	241	47.134715822135	33
0	243	48.756194228847	34
0	251	50.45529230645	35
0	257	52.419782072148	36
0	265	54.364154460682	37
0	273	55.79857108959	38
0	281	56.865820720401	39
0	287	58.082717701402	40
0	295	59.964303105446	41
0	309	61.276163325953	42
0	317	62.7943640373	43
0	319	64.071992745698	44
0	325	65.879573010682	45
0	331	67.596432690584	46
0	339	68.761391562019	47
0	341	69.978842056431	48
0	347	71.531034527887	49
0	349	73.208297834574	50
0	361	74.224727465846	51
0	369	76.101232708274	52
0	377	77.900435292936	53
0	385	78.913672149723	54
0	391	80.553144666209	55
0	403	81.954277007683	56
0	405	83.353775924613	57
0	413	84.761017092346	58
0	417	86.531597841141	59
0	425	87.621200874291	60
0	427	89.348245138146	61
0	429	90.6043847211	62
0	437	91.659759037971	63
0	443	92.943277886446	64
0	449	94.603317748133	65
0	451	95.977130887641	66
0	461	96.986819061295	67
0	467	98.505654208905	68
0	469	99.980943653344	69
0	479	101.411346092897	70
0	481	102.571216159577	71
0	487	104.475200111123	72
0	491	106.27557856993	73
0	501	107.701884447906	74
0	509	109.498275922688	75
0	521	111.45015039745	76
0	527	112.874182649266	77
0	533	113.993953997578	78
0	537	115.395213494619	79
0	539	117.340515028063	80
0	543	118.432542611455	81
0	551	119.669715901913	82
0	557	120.702181198012	83
0	563	121.817665490864	84
0	565	123.127733134741	85
0	571	124.766494889354	86
0	577	126.568331039587	87
0	585	128.234190153733	88
0	591	129.649047023926	89
0	601	131.387729682105	90
0	613	133.379740926281	91
0	615	134.652177824017	92
0	621	136.026422406856	93
0	635	137.475714054966	94
0	641	138.62454335143	95
0	647	139.917337382521	96
0	651	141.017369434779	97
0	659	142.036670039251	98
0	665	144.012421728188	99
0	671	145.518288112555	100
0	677	147.143924730208	101
0	685	148.397567252705	102
0	693	150.019951675164	103
0	695	151.563629729284	104
0	697	153.419932707289	105
0	705	155.130269535428	106
0	707	156.536211858347	107
0	711	157.961719494389	108
0	715	159.930583596073	109
0	721	161.220359472401	110
0	729	162.867556124303	111
0	737	164.681234772859	112
0	741	166.201187150629	113
0	749	167.42894665043	114
0	757	169.409526783816	115
0	763	171.239424154005	116
0	769	172.555912073544	117
0	775	174.442216738435	118
0	781	175.777847717358	119
0	785	176.817463240195	120
0	787	178.725196197936	121
0	793	180.159956835983	122
0	795	182.15791908822	123
0	799	183.755222025402	124
0	801	185.725443829158	125
0	805	187.053431828115	126
0	819	188.66068120541	127
0	825	190.317700981469	128
0	833	192.316978969219	129
0	839	194.20677262389	130
0	841	195.972043212577	131
0	843	197.213944917851	132
0	849	198.47457358458	133
0	855	199.581577722988	134
0	861	201.177788841146	135
0	863	202.862723280749	136
0	867	204.761482863295	137
0	871	206.380665659745	138
0	877	208.365598965044	139
0	883	209.822657723053	140
0	891	211.306364183853	141
0	895	212.706031556082	142
0	903	214.080784258972	143
0	905	215.397004245854	144
0	915	216.802039856398	145
0	923	218.467717586159	146
0	929	220.404936414053	147
0	937	221.4240593117	148
0	943	222.509370238594	149
0	945	224.023129973402	150
0	953	225.879406156558	151
0	959	227.079002295229	152
0	967	228.500846808152	153
0	973	230.168440114315	154
0	979	231.669503282597	155
0	983	232.870019292766	156
0	985	234.721872998476	157
0	999	235.881718284758	158
0	1009	237.684410422417	159
0	1011	238.685793777304	160
1	3	0.133506796753	0
1	31	5.484900145418	1
1	49	9.929177318708	2
1	61	11.078212023834	3
1	67	12.737922073307	4
1	129	23.536726310011	5
1	161	28.382117678424	6
1	181	31.26940474906	7
1	215	40.282074704716	8
1	221	41.976083779549	9
1	253	50.473372106984	10
1	259	52.44323554648	11
1	297	59.979844813736	12
1	321	64.095739545236	13
1	333	67.607766096817	14
1	351	73.244823419729	15
1	363	74.238854764513	16
1	379	77.914700651056	17
1	387	78.928270062901	18
1	393	80.564430468582	19
1	415	84.772606424143	20
1	419	86.55274671536	21
1	453	96.009391727535	22
1	463	97.000483574213	23
1	471	99.998077496172	24
1	489	104.506166473858	25
1	511	109.516850273714	26
1	553	119.688394520612	27
1	559	120.721817124975	28
1	567	123.144472569183	29
1	579	126.585614815317	30
1	603	131.400598773059	31
1	617	134.666099436913	32
1	643	138.636196281553	33
1	649	139.959590543358	34
1	661	142.049858449735	35
1	673	145.53228606528	36
1	679	147.159833082412	37
1	713	157.983460195757	38
1	717	159.948328763952	39
1	723	161.23953219037	40
1	731	162.884685689094	41
1	739	164.703075050222	42
1	751	167.459487175269	43
1	777	174.462039120279	44
1	783	175.788465878844	45
1	797	182.178391010775	46
1	821	188.681245615352	47
1	851	198.493482122599	48
1	857	199.613815551146	49
1	873	206.413355350611	50
1	917	216.812340684353	51
1	925	218.509491892374	52
1	931	220.422237634256	53
1	955	225.895079837755	54
1	961	227.093917748817	55
1	969	228.512987630099	56
1	981	231.686719870074	57
1	1013	238.704355438878	58
2	5	0.162296437295	0
2	9	0.196209621693	1
2	15	1.863485135026	2
2	33	5.50765242244	3
2	51	9.967956468921	4
2	55	9.999679253756	5
2	63	11.089592310718	6
2	69	12.757980783359	7
2	77	14.119126642704	8
2	81	14.146054425088	9
2	85	14.191801500392	10
2	97	16.36849598633	11
2	113	19.652690076289	12
2	131	23.564383720735	13
2	137	24.943049771652	14
2	141	24.970953419443	15
2	145	25.021660696544	16
2	149	25.086017002651	17
2	163	28.423372362001	18
2	167	28.457719498788	19
2	177	30.012119053512	20
2	193	34.624337574793	21
2	217	40.292593830238	22
2	223	41.990546307754	23
2	227	42.031770532274	24
2	255	50.485727352718	25
2	261	52.488380333285	26
2	277	55.841250030104	27
2	285	56.898175725066	28
2	291	58.135071158301	29
2	299	59.991898291423	30
2	303	60.020415922487	31
2	307	60.045951838366	32
2	313	61.298092049817	33
2	323	64.113024783663	34
2	335	67.645972456301	35
2	345	70.009970765711	36
2	353	73.272723315774	37
2	357	73.298036836537	38
2	365	74.254927557399	39
2	381	77.939861340354	40
2	389	78.943860139601	41
2	395	80.575460152219	42
2	399	80.636281144916	43
2	421	86.568405660776	44
2	455	96.021586409144	45
2	459	96.083595073723	46
2	465	97.015837617724	47
2	473	100.009630352027	48
2	477	100.036822636451	49
2	495	106.305959114883	50
2	499	106.328978171107	51
2	505	107.760867254035	52
2	513	109.528565659988	53
2	517	109.566460224801	54
2	531	112.900214970173	55
2	547	118.470995324252	56
2	555	119.699799277782	57
2	561	120.736506338248	58
2	569	123.159062848458	59
2	575	124.798087439038	60
2	581	126.602499954197	61
2	589	128.263173940744	62
2	595	129.691880925728	63
2	599	129.740223055652	64
2	605	131.417322602079	65
2	609	131.444845958967	66
2	619	134.67881499483	67
2	625	136.054389843812	68
2	629	136.083619644239	69
2	633	136.128104607629	70
2	639	137.503139532557	71
2	645	138.658106096087	72
2	655	141.085249065824	73
2	663	142.064995305868	74
2	669	144.058662814437	75
2	675	145.562114191083	76
2	681	147.177016740764	77
2	689	148.441268805494	78
2	701	153.440260192831	79
2	719	159.988060847347	80
2	725	161.26747892151	81
2	733	162.894981007206	82
2	753	167.474257152778	83
2	761	169.465270979825	84
2	773	172.590521255008	85
2	779	174.4839616427	86
2	809	187.089951559466	87
2	813	187.1435188958	88
2	817	187.176619925243	89
2	823	188.702009519946	90
2	829	190.369785522389	91
2	853	198.531747362305	92
2	859	199.628601316857	93
2	875	206.429715855322	94
2	899	212.754149631695	95
2	909	215.434717554873	96
2	913	215.475651782218	97
2	919	216.823431002989	98
2	927	218.524034768145	99
2	933	220.444986148781	100
2	957	225.908670794583	101
2	963	227.10421154829	102
2	971	228.537228940255	103
2	993	234.779921266347	104
2	997	234.830663286766	105
2	1003	235.946529644608	106
2	1007	236.015103442123	107
2	1015	238.720489619539	108
3	7	0.182678030302	0
3	17	1.878473855116	1
3	27	4.52735579042	2
3	35	5.519199719245	3
3	53	9.983933929689	4
3	57	10.010724866014	5
3	71	12.769057134441	6
3	79	14.131929412789	7
3	83	14.166735147059	8
3	87	14.206401639969	9
3	99	16.391938439052	10
3	115	19.670097665793	11
3	139	24.955909981377	12
3	143	24.989445627559	13
3	147	25.037586936819	14
3	165	28.438395469984	15
3	175	30.001033582527	16
3	195	34.635393701229	17
3	225	42.014409221274	18
3	263	52.501315409804	19
3	271	54.437337782117	20
3	279	55.873948430262	21
3	293	58.152404835033	22
3	301	60.00798873755	23
3	305	60.033022323781	24
3	315	61.312778814577	25
3	337	67.669715886445	26
3	355	73.286032414586	27
3	359	73.314684914033	28
3	367	74.294749564154	29
3	375	76.166982707067	30
3	383	77.956369313778	31
3	397	80.593881515247	32
3	401	80.651580760709	33
3	423	86.586555844085	34
3	435	90.655606139057	35
3	457	96.057510895232	36
3	475	100.022882060732	37
3	497	106.316233535887	38
3	507	107.790367023153	39
3	515	109.555468009536	40
3	519	109.581542419342	41
3	549	118.491488745911	42
3	583	126.615883415384	43
3	597	129.706689707971	44
3	607	131.429980767569	45
3	611	131.467965589778	46
3	627	136.0713692193	47
3	631	136.113815489271	48
3	657	141.097676520198	49
3	683	147.200491229001	50
3	691	148.46254640983	51
3	703	153.475784957766	52
3	727	161.277649077747	53
3	735	162.906004025016	54
3	755	167.492052503066	55
3	811	187.107177581841	56
3	815	187.157635901579	57
3	831	190.396554869719	58
3	901	212.77529077906	59
3	911	215.458083239046	60
3	921	216.855623958207	61
3	935	220.457507545545	62
3	951	224.085207738735	63
3	965	227.115216603527	64
3	991	234.768056770005	65
3	995	234.81128320561	66
3	1005	235.984115257837	67
3	1017	238.741507238712	68
4	13	1.845958393893	0
4	23	4.467391263192	1
4	41	8.455124509476	2
4	75	14.103775995933	3
4	91	15.272696269143	4
4	95	16.357922717066	5
4	103	18.329339383977	6
4	111	19.622657671064	7
4	121	22.25105377949	8
4	135	24.92964630427	9
4	153	26.609622851931	10
4	171	29.97059761496	11
4	185	32.619297194557	12
4	191	34.606636806198	13
4	199	36.087906484156	14
4	205	37.736319263357	15
4	233	44.196310954772	16
4	245	48.814985557727	17
4	267	54.377891158626	18
4	275	55.819946474645	19
4	283	56.886699764737	20
4	289	58.116196139016	21
4	311	61.286423303405	22
4	327	65.894615810015	23
4	343	69.997624207218	24
4	371	76.121187344708	25
4	407	83.366418629254	26
4	431	90.617974334284	27
4	439	91.674538217846	28
4	445	92.955592096166	29
4	483	102.589064529773	30
4	493	106.291988305383	31
4	503	107.743866997674	32
4	523	111.463143681274	33
4	529	112.890050337333	34
4	535	114.0304458802	35
4	541	117.351090957231	36
4	545	118.460838033014	37
4	573	124.777225405926	38
4	587	128.248661552759	39
4	593	129.66500874284	40
4	623	136.040053195258	41
4	637	137.487127986093	42
4	653	141.066278535683	43
4	667	144.026137885736	44
4	687	148.419964233511	45
4	699	153.430011860754	46
4	709	156.569874760985	47
4	743	166.216468590536	48
4	759	169.45403688511	49
4	765	171.252254878363	50
4	771	172.5718251014	51
4	789	178.737273230798	52
4	803	185.746849073908	53
4	807	187.069925935383	54
4	827	190.332037976173	55
4	835	192.341442044941	56
4	845	197.244430749417	57
4	865	202.872812994622	58
4	869	204.776302655391	59
4	879	208.414700372741	60
4	885	209.83878739574	61
4	893	211.321167101991	62
4	897	212.726867037965	63
4	907	215.412202465303	64
4	939	221.436561844504	65
4	947	224.034898780463	66
4	975	230.183162401801	67
4	987	234.732352370472	68
4	1001	235.909819394873	69
5	18	1.888473855116	0
5	28	4.53735579042	1
5	36	5.529199719245	2
5	58	10.020724866014	3
5	88	14.216401639969	4
5	158	26.664675234316	5
5	196	34.645393701229	6
5	250	48.874475574477	7
5	280	55.883948430262	8
5	360	73.324684914033	9
5	368	74.304749564154	10
5	376	76.176982707067	11
5	424	86.596555844085	12
5	436	90.665606139057	13
5	584	126.625883415384	14
5	612	131.477965589778	15
5	684	147.210491229001	16
5	692	148.47254640983	17
5	728	161.287649077747	18
5	756	167.502052503066	19
5	832	190.406554869719	20
5	890	209.875214637497	21
5	966	227.125216603527	22
6	25	4.478903571729	0
6	43	8.471215333708	1
6	105	18.345895846821	2
6	123	22.262467086626	3
6	155	26.640917845892	4
6	173	29.985433971826	5
6	187	32.651983534484	6
6	201	36.121408257054	7
6	207	37.765158552223	8
6	235	44.210547525786	9
6	247	48.834503854802	10
6	269	54.425358104764	11
6	329	65.922968444044	12
6	373	76.138081690086	13
6	409	83.380353653365	14
6	433	90.63410872518	15
6	441	91.691658298502	16
6	447	92.980616224103	17
6	485	102.623204694078	18
6	525	111.486700866413	19
6	745	166.248295729429	20
6	767	171.26582204089	21
6	791	178.754800927318	22
6	837	192.354619738355	23
6	847	197.28630959114	24
6	881	208.425753516933	25
6	887	209.853892521499	26
6	941	221.446814455722	27
6	949	224.069112146927	28
6	977	230.20117148863	29
6	989	234.756089563119	30
7	45	8.482668113981	0
7	107	18.35972285631	1
7	125	22.290879911341	2
7	157	26.654675234316	3
7	209	37.780458581004	4
7	237	44.229918912963	5
7	249	48.864475574477	6
7	411	83.403285131953	7
7	747	166.267940727047	8
7	889	209.865214637497	9

