version 2
run General-2-20230921-23:29:07-9477
attr configname General
attr datetime 20230921-23:29:07
attr experiment General
attr inifile omnetpp.ini
attr iterationvars ""
attr iterationvarsf ""
attr measurement ""
attr network Network3
attr processid 9477
attr repetition 2
attr replication #2
attr resultdir results
attr runnumber 2
attr seedset 2
param Network3.node[*].transmissionTime "uniform(1s, 2s)"
param Network3.node[*].delayTime "uniform(0.01s, 0.2s)"
param Network3.node[*].processingTime exponential(0.01s)
param Network3.node[0].lossProbability 0
param Network3.node[1].lossProbability 0.2
param Network3.node[2].lossProbability 0.2
param Network3.node[3].lossProbability "0.2 / 2"
param Network3.node[4].lossProbability "0.2 / 2"
param Network3.node[6].lossProbability "0.2 * 2"
param Network3.node[7].lossProbability "0.2 * 2"
param Network3.node[5].lossProbability "0.2 * 3"

vector 0 Network3.node[0] txVector ETV
vector 1 Network3.node[2] txVector ETV
vector 2 Network3.node[4] txVector ETV
vector 3 Network3.node[1] txVector ETV
vector 4 Network3.node[3] txVector ETV
vector 5 Network3.node[6] txVector ETV
vector 6 Network3.node[5] rxVector ETV
vector 7 Network3.node[7] txVector ETV
0	1	0.092839031499	0
0	7	1.118765259413	1
0	13	2.273191934936	2
0	21	3.894325768128	3
0	29	5.748301059026	4
0	31	7.176423390181	5
0	33	8.35815042748	6
0	41	9.954895735503	7
0	49	11.156638962467	8
0	51	12.736643145344	9
0	69	13.885207925708	10
0	77	15.251550321485	11
0	85	17.245402331947	12
0	99	18.538425564318	13
0	107	20.464972312813	14
0	109	22.343272601505	15
0	117	24.005474623543	16
0	125	25.978385314363	17
0	137	27.193021062314	18
0	143	28.941798940552	19
0	157	30.749010081421	20
0	163	32.340267437295	21
0	165	34.276515480614	22
0	169	35.387098626484	23
0	171	37.016458353045	24
0	173	38.191574742104	25
0	179	39.286862791766	26
0	185	40.313246937952	27
0	193	41.545365188056	28
0	197	43.198385697575	29
0	201	44.427959725512	30
0	209	45.45854920337	31
0	211	46.853699963093	32
0	213	48.303726685252	33
0	223	50.179993139831	34
0	231	52.053120479937	35
0	235	53.238710216032	36
0	241	54.611751270964	37
0	249	56.093209428731	38
0	253	57.808956515528	39
0	259	59.749407011335	40
0	267	60.8171422505	41
0	283	62.198804827891	42
0	287	63.617712140102	43
0	295	64.844008299541	44
0	301	66.60101293914	45
0	307	68.036096588494	46
0	315	70.023401444098	47
0	319	71.172077770131	48
0	327	72.213346887166	49
0	339	73.864439077229	50
0	345	75.251022537957	51
0	349	76.680611153851	52
0	361	78.396341743433	53
0	367	79.955292536431	54
0	375	81.320770923533	55
0	383	82.723565861602	56
0	399	83.746282445752	57
0	401	85.69094132308	58
0	411	87.063834207152	59
0	415	88.900577736572	60
0	421	90.751007567412	61
0	429	92.088375857585	62
0	441	94.031546580625	63
0	447	95.094448116395	64
0	453	96.698588953839	65
0	461	98.02211746948	66
0	469	99.333646873964	67
0	471	101.26343729838	68
0	481	102.265319956022	69
0	487	103.77038187885	70
0	489	104.801683884601	71
0	495	106.587481745074	72
0	501	108.307698390933	73
0	507	109.370503831676	74
0	513	111.151261353886	75
0	525	112.313444798135	76
0	527	113.562179086285	77
0	533	114.776120130692	78
0	543	115.996421785115	79
0	549	117.131625534522	80
0	555	118.879810562611	81
0	563	120.282004977132	82
0	577	122.262168548091	83
0	595	124.20335104598	84
0	601	125.603495585986	85
0	607	126.976267007433	86
0	609	128.778296008727	87
0	617	130.213388434865	88
0	623	132.092675389743	89
0	625	133.129763187163	90
0	631	134.447046542095	91
0	635	136.255013254026	92
0	637	137.633726401741	93
0	639	139.615805115339	94
0	645	140.628775810378	95
0	647	142.207977772944	96
0	659	143.236486346249	97
0	665	144.677489781308	98
0	673	146.230269741288	99
0	679	148.208853323732	100
0	695	149.970477775226	101
0	701	151.235017386053	102
0	711	153.04753508188	103
0	713	154.333488877883	104
0	715	155.80779399818	105
0	719	157.028686965836	106
0	731	158.936622297412	107
0	737	160.255335342625	108
0	747	161.342590961393	109
0	751	162.627577580998	110
0	753	164.202489573064	111
0	765	165.647171391195	112
0	771	167.64545092012	113
0	773	168.949262217639	114
0	777	169.954834532013	115
0	789	171.197553648401	116
0	791	173.013533196665	117
0	797	174.724699861623	118
0	803	176.308877860449	119
0	809	178.274137364954	120
0	819	180.169991216177	121
0	821	182.04920570438	122
0	823	183.795677311972	123
0	831	185.77492660193	124
0	837	187.601032077123	125
0	839	189.22066507281	126
0	847	190.625263568034	127
0	853	192.342157077297	128
0	861	193.658049218144	129
0	867	194.759159217143	130
0	873	195.784202868372	131
0	879	197.579201050356	132
0	887	198.698816391893	133
0	893	200.376975412734	134
0	899	202.283148787704	135
0	903	203.784437574467	136
0	909	205.268627672943	137
0	921	207.256882917157	138
0	927	209.088666496354	139
0	929	210.301908302375	140
0	933	211.906255238012	141
0	949	212.918306435247	142
0	955	214.827615902082	143
0	961	216.070383776699	144
0	967	217.669783851153	145
0	973	218.742817205398	146
0	981	220.537288481624	147
0	987	221.71767906288	148
0	993	223.710955636365	149
0	999	225.179508307505	150
0	1007	226.374969369288	151
0	1017	227.61947000285	152
0	1023	228.694969713011	153
0	1029	230.245706798065	154
0	1035	231.81904255601	155
0	1043	233.688448151363	156
0	1049	235.679940059338	157
0	1051	236.79982071116	158
0	1057	238.154251150576	159
0	1061	239.659112756162	160
1	3	0.110816610738	0
1	53	12.765767582168	1
1	101	18.548481162802	2
1	111	22.358175047366	3
1	119	24.016671203893	4
1	127	25.993776766971	5
1	145	28.967804742562	6
1	159	30.765729148426	7
1	167	34.289718349501	8
1	175	38.204912083276	9
1	181	39.317242611377	10
1	195	41.571403997579	11
1	199	43.220580877653	12
1	215	48.31938987656	13
1	243	54.635549385115	14
1	255	57.820033903945	15
1	269	60.860603848166	16
1	303	66.613508856799	17
1	309	68.046509182176	18
1	317	70.03353469834	19
1	347	75.271289504285	20
1	351	76.691684164622	21
1	369	79.974186520125	22
1	385	82.734115600877	23
1	431	92.106514556736	24
1	449	95.108584631185	25
1	455	96.710966420175	26
1	463	98.053345048582	27
1	491	104.817279497389	28
1	509	109.381358096618	29
1	515	111.173110873227	30
1	545	116.010063041958	31
1	557	118.890505119689	32
1	579	122.282477947883	33
1	611	128.792935987299	34
1	633	134.459836894694	35
1	641	139.627140282474	36
1	667	144.690590282967	37
1	681	148.22196992765	38
1	703	151.246527756852	39
1	717	155.818235825494	40
1	739	160.283425562459	41
1	749	161.365704130304	42
1	767	165.659893073663	43
1	775	168.972948854926	44
1	799	174.736887856826	45
1	805	176.327491231955	46
1	825	183.806528591413	47
1	833	185.791933483007	48
1	849	190.641872663201	49
1	881	197.623666925514	50
1	895	200.39409830706	51
1	901	202.31605832811	52
1	905	203.805014556956	53
1	923	207.270254725037	54
1	931	210.313102169563	55
1	935	211.918575651331	56
1	963	216.086960204567	57
1	975	218.754109626272	58
1	995	223.737130426742	59
1	1037	231.847532996495	60
2	5	0.127447623789	0
2	25	3.923090439914	1
2	37	8.395300687655	2
2	55	12.782699221255	3
2	59	12.861079018988	4
2	63	12.912629106172	5
2	67	12.94369073606	6
2	93	17.355301414357	7
2	97	17.387735024223	8
2	103	18.558612190863	9
2	113	22.392764579709	10
2	121	24.059494573324	11
2	129	26.012753821188	12
2	133	26.069134279583	13
2	147	28.980866985464	14
2	151	29.035106915272	15
2	155	29.065285302839	16
2	161	30.78079174228	17
2	177	38.222458505073	18
2	183	39.37190513757	19
2	189	40.346031375004	20
2	205	44.476530487639	21
2	217	48.335077000446	22
2	221	48.370347252205	23
2	239	53.290225837785	24
2	245	54.647216611758	25
2	257	57.848485359822	26
2	271	60.870650592455	27
2	275	60.915818724672	28
2	279	60.977139127105	29
2	299	64.869711938154	30
2	305	66.652963686915	31
2	311	68.059104797392	32
2	335	72.30352281556	33
2	353	76.705783309103	34
2	357	76.748813847752	35
2	371	80.037070710489	36
2	387	82.766480408738	37
2	391	82.795403294621	38
2	395	82.822785751071	39
2	409	85.749147960676	40
2	419	88.930190261465	41
2	425	90.803844413117	42
2	433	92.136561262974	43
2	437	92.173307136774	44
2	451	95.123940396319	45
2	457	96.737838591423	46
2	465	98.100871574749	47
2	479	101.313168355745	48
2	493	104.829914954475	49
2	505	108.340060881195	50
2	511	109.424702881507	51
2	517	111.186670785984	52
2	521	111.233127782776	53
2	537	114.810522920524	54
2	541	114.85747112929	55
2	547	116.020411808515	56
2	553	117.157413024516	57
2	559	118.918599214846	58
2	567	120.305495467991	59
2	571	120.337541917073	60
2	575	120.448551710492	61
2	581	122.294262311454	62
2	585	122.331983531325	63
2	589	122.364632382818	64
2	593	122.415533234628	65
2	599	124.23859261361	66
2	605	125.636628187951	67
2	613	128.812162717713	68
2	621	130.264253993579	69
2	643	139.647261786967	70
2	655	142.268813374782	71
2	663	143.273604109553	72
2	669	144.704765578072	73
2	677	146.266677237657	74
2	683	148.234164185551	75
2	687	148.277815009914	76
2	691	148.314138052541	77
2	699	150.00418817076	78
2	705	151.260427956471	79
2	709	151.290717540353	80
2	723	157.062043139422	81
2	727	157.110865677086	82
2	741	160.299259580583	83
2	745	160.332201858693	84
2	757	164.227125905742	85
2	761	164.259909842375	86
2	769	165.676099183856	87
2	781	170.029530440421	88
2	785	170.063514914428	89
2	801	174.74971265117	90
2	807	176.342280727639	91
2	813	178.310728023464	92
2	817	178.3517308522	93
2	827	183.824074645237	94
2	835	185.846800643806	95
2	851	190.657711736207	96
2	865	193.687117155827	97
2	871	194.801367963764	98
2	877	195.805461524819	99
2	883	197.640001902349	100
2	891	198.728711199502	101
2	897	200.404417825828	102
2	907	203.819249048546	103
2	917	205.347895876836	104
2	925	207.287190157392	105
2	937	211.93737446282	106
2	941	211.963664096067	107
2	945	212.004831891341	108
2	953	212.942723219537	109
2	959	214.864550349545	110
2	965	216.104992032644	111
2	971	217.738631614777	112
2	977	218.772632095606	113
2	991	221.777932067988	114
2	997	223.75926989281	115
2	1011	226.410763955008	116
2	1015	226.465134136942	117
2	1039	231.865362028613	118
2	1055	236.839169863266	119
3	9	1.140767148779	0
3	15	2.290723924021	1
3	23	3.911142635961	2
3	35	8.370712416614	3
3	43	9.975123552321	4
3	71	13.914235987048	5
3	79	15.296811234109	6
3	87	17.262827111298	7
3	139	27.219044973071	8
3	187	40.333555860182	9
3	203	44.442377929798	10
3	225	50.196630067674	11
3	233	52.064537172757	12
3	237	53.248818812794	13
3	251	56.103294271277	14
3	261	59.769300498238	15
3	285	62.209515483647	16
3	289	63.647446944932	17
3	297	64.85927107084	18
3	321	71.187622745993	19
3	329	72.233594463446	20
3	341	73.887707463655	21
3	363	78.408340289856	22
3	377	81.331192130565	23
3	403	85.701949181008	24
3	413	87.079161795225	25
3	417	88.913198472605	26
3	423	90.791375339414	27
3	443	94.042577549124	28
3	473	101.27397018967	29
3	483	102.286665092186	30
3	497	106.609895746657	31
3	503	108.321388887558	32
3	529	113.577038935908	33
3	535	114.794395088941	34
3	551	117.146484749457	35
3	565	120.295214103559	36
3	597	124.217726708996	37
3	603	125.619189130109	38
3	619	130.223421845043	39
3	627	133.148571348032	40
3	649	142.225101776315	41
3	661	143.252708339584	42
3	675	146.2456197454	43
3	697	149.983753476558	44
3	721	157.045205978208	45
3	733	158.950685406792	46
3	755	164.215122391349	47
3	779	170.010142243218	48
3	793	173.057649308053	49
3	811	178.297137602076	50
3	841	189.233491055315	51
3	855	192.354844372442	52
3	863	193.67695008015	53
3	869	194.783370758446	54
3	875	195.795363855438	55
3	889	198.714198852311	56
3	911	205.288597568604	57
3	951	212.930774995197	58
3	957	214.837823692072	59
3	969	217.704124940718	60
3	983	220.549716438602	61
3	989	221.737602720467	62
3	1001	225.193434732576	63
3	1009	226.396290041983	64
3	1019	227.657987931461	65
3	1025	228.708901411452	66
3	1031	230.279844410793	67
3	1045	233.706531552461	68
3	1053	236.817064005714	69
3	1059	238.167688114109	70
3	1063	239.67165020686	71
4	11	1.154328966253	0
4	17	2.307626660505	1
4	45	10.000878253529	2
4	73	13.926733405688	3
4	81	15.318919262768	4
4	89	17.28717901656	5
4	141	27.233643249542	6
4	227	50.213715061577	7
4	263	59.787746577916	8
4	291	63.665866678	9
4	323	71.212839737831	10
4	331	72.259212557121	11
4	343	73.898533002459	12
4	365	78.436356318663	13
4	379	81.360315341706	14
4	405	85.720492823344	15
4	445	94.068459954552	16
4	475	101.283995044757	17
4	485	102.303218274657	18
4	499	106.624601887736	19
4	531	113.588000041513	20
4	629	133.162217099498	21
4	651	142.244063693813	22
4	735	158.966260692102	23
4	795	173.07910848121	24
4	843	189.247412523219	25
4	857	192.368433208492	26
4	913	205.318148829848	27
4	985	220.565332496225	28
4	1003	225.209240863323	29
4	1021	227.668685200667	30
4	1027	228.725053855027	31
4	1033	230.303697094808	32
4	1047	233.72570470372	33
4	1065	239.683573549918	34
5	19	2.319665461675	0
5	47	10.015770405898	1
5	83	15.343399252601	2
5	229	50.227625998351	3
5	293	63.676638305344	4
5	859	192.382640898834	5
5	1005	225.226679007333	6
5	1067	239.704739960128	7
6	20	2.329665461675	0
6	48	10.025770405898	1
6	124	24.092903950543	2
6	136	26.090572454569	3
6	192	40.368482741651	4
6	230	50.237625998351	5
6	266	59.813569590555	6
6	460	96.769526317248	7
6	616	128.851479831129	8
6	658	142.291844935983	9
6	672	144.743208806258	10
6	788	170.0876661173	11
6	830	183.853857403225	12
6	886	197.695498296726	13
6	920	205.375497383186	14
6	948	212.034889636932	15
6	980	218.796345268133	16
6	1042	231.89012485198	17
7	27	3.940127387806	0
7	39	8.40960584464	1
7	57	12.842705514343	2
7	61	12.887643018938	3
7	65	12.92583354551	4
7	75	13.939572660221	5
7	91	17.338015105674	6
7	95	17.369210253434	7
7	105	18.571006612947	8
7	115	22.407085831754	9
7	123	24.082903950543	10
7	131	26.024622867202	11
7	135	26.080572454569	12
7	149	29.017337463249	13
7	153	29.04551525225	14
7	191	40.358482741651	15
7	207	44.487209675733	16
7	219	48.354628734301	17
7	247	54.676100495197	18
7	265	59.803569590555	19
7	273	60.884898572595	20
7	277	60.941080406597	21
7	281	60.991352631681	22
7	313	68.070735711438	23
7	325	71.236506155693	24
7	333	72.275265354432	25
7	337	72.326455595614	26
7	355	76.73743449547	27
7	359	76.765309675197	28
7	373	80.082320561271	29
7	381	81.370502375876	30
7	389	82.779177353206	31
7	393	82.807633432481	32
7	397	82.834328869012	33
7	407	85.735133375666	34
7	427	90.814289050334	35
7	435	92.149485506243	36
7	439	92.187538031308	37
7	459	96.759526317248	38
7	467	98.118277513113	39
7	477	101.301724722903	40
7	519	111.212925232854	41
7	523	111.251633100319	42
7	539	114.824100433845	43
7	561	118.932221465182	44
7	569	120.326504409931	45
7	573	120.425053941026	46
7	583	122.312403460708	47
7	587	122.349888683535	48
7	591	122.386005685871	49
7	615	128.841479831129	50
7	653	142.257880699932	51
7	657	142.281844935983	52
7	671	144.733208806258	53
7	685	148.249099986611	54
7	689	148.300486413138	55
7	693	148.324565937545	56
7	707	151.277485314043	57
7	725	157.086866334423	58
7	729	157.121099472513	59
7	743	160.319065537362	60
7	759	164.246931200558	61
7	763	164.273488840318	62
7	783	170.048283475532	63
7	787	170.0776661173	64
7	815	178.331986518852	65
7	829	183.843857403225	66
7	845	189.259721967502	67
7	885	197.685498296726	68
7	915	205.330940027986	69
7	919	205.365497383186	70
7	939	211.948086067364	71
7	943	211.97377977141	72
7	947	212.024889636932	73
7	979	218.786345268133	74
7	1013	226.425640883041	75
7	1041	231.88012485198	76

