version 2
run General-1-20230921-23:29:07-9477
attr configname General
attr datetime 20230921-23:29:07
attr experiment General
attr inifile omnetpp.ini
attr iterationvars ""
attr iterationvarsf ""
attr measurement ""
attr network Network3
attr processid 9477
attr repetition 1
attr replication #1
attr resultdir results
attr runnumber 1
attr seedset 1
param Network3.node[*].transmissionTime "uniform(1s, 2s)"
param Network3.node[*].delayTime "uniform(0.01s, 0.2s)"
param Network3.node[*].processingTime exponential(0.01s)
param Network3.node[0].lossProbability 0
param Network3.node[1].lossProbability 0.2
param Network3.node[2].lossProbability 0.2
param Network3.node[3].lossProbability "0.2 / 2"
param Network3.node[4].lossProbability "0.2 / 2"
param Network3.node[6].lossProbability "0.2 * 2"
param Network3.node[7].lossProbability "0.2 * 2"
param Network3.node[5].lossProbability "0.2 * 3"

vector 0 Network3.node[0] txVector ETV
vector 1 Network3.node[2] txVector ETV
vector 2 Network3.node[4] txVector ETV
vector 3 Network3.node[1] txVector ETV
vector 4 Network3.node[7] txVector ETV
vector 5 Network3.node[3] txVector ETV
vector 6 Network3.node[5] rxVector ETV
vector 7 Network3.node[6] txVector ETV
0	1	0.089234179703	0
0	7	1.809558668991	1
0	9	3.206139395132	2
0	15	4.551700120212	3
0	23	6.076248282918	4
0	25	7.506946853015	5
0	31	8.7050483363	6
0	37	10.223200884533	7
0	39	11.393031307149	8
0	41	13.063559348348	9
0	47	14.484666969047	10
0	55	15.626787101968	11
0	63	16.925282400452	12
0	75	18.828652571772	13
0	77	20.442590890105	14
0	85	22.031896427392	15
0	93	23.081849886223	16
0	99	24.985251799112	17
0	101	26.52367649379	18
0	107	28.451185072426	19
0	113	30.141389662054	20
0	123	32.037275877435	21
0	139	33.392586240664	22
0	147	35.15717881115	23
0	149	36.629653852553	24
0	151	38.56224931742	25
0	153	40.026560824951	26
0	161	41.782023876794	27
0	163	42.808234864036	28
0	171	44.318045142228	29
0	179	45.551667669909	30
0	189	46.841427671611	31
0	191	47.9013453665	32
0	193	49.838535692431	33
0	201	50.946029815711	34
0	207	52.913306145351	35
0	209	54.074924674937	36
0	215	55.656283604567	37
0	221	56.860641728741	38
0	223	57.930663873562	39
0	237	59.744540235381	40
0	243	60.810875068074	41
0	245	61.973080579312	42
0	247	63.233395681371	43
0	249	64.376658688187	44
0	255	66.016119569893	45
0	263	67.744131210147	46
0	271	69.472688606827	47
0	279	71.399039317973	48
0	283	72.767416171849	49
0	285	74.121993405631	50
0	289	75.257072561074	51
0	293	77.205042771881	52
0	295	78.381239032259	53
0	297	79.88431494206	54
0	305	81.693805632766	55
0	315	83.599197944745	56
0	321	85.552029069166	57
0	329	87.444917773714	58
0	331	88.865111454276	59
0	337	90.264526745656	60
0	339	92.238310288291	61
0	345	93.396066284624	62
0	353	94.982899622179	63
0	359	96.305580622868	64
0	369	97.328749353185	65
0	371	98.75545036502	66
0	379	99.975316663159	67
0	387	101.274116887132	68
0	391	102.717924870437	69
0	397	104.529696384098	70
0	399	106.512513500757	71
0	403	107.793730392239	72
0	409	109.454062288745	73
0	417	110.679102242344	74
0	423	111.789993545159	75
0	427	113.295457475937	76
0	441	114.453037104222	77
0	443	116.204564924004	78
0	449	117.252864936019	79
0	451	119.12578731531	80
0	467	120.477908626783	81
0	475	122.447473133567	82
0	479	123.960134836032	83
0	487	125.406234341559	84
0	493	126.609292185285	85
0	501	127.964997355944	86
0	517	129.827343608836	87
0	523	130.884273042787	88
0	525	132.373280343717	89
0	527	133.966712798575	90
0	535	135.132402438788	91
0	537	136.390205331963	92
0	539	138.099592584769	93
0	545	139.471680258519	94
0	551	140.900299088915	95
0	561	142.358822267155	96
0	565	143.43720916717	97
0	569	144.895792980331	98
0	577	146.650654459258	99
0	579	148.124658386109	100
0	587	150.116108955003	101
0	589	151.804225056085	102
0	591	153.342852340664	103
0	599	154.623537132169	104
0	601	156.238841364046	105
0	609	157.861337262557	106
0	621	159.26221099205	107
0	629	161.244628436516	108
0	631	162.678220766715	109
0	641	163.906825576096	110
0	649	165.766314895476	111
0	667	166.775663473529	112
0	675	168.182366347292	113
0	677	169.349180165797	114
0	679	171.051056696919	115
0	685	172.93032846472	116
0	687	174.594431026259	117
0	699	176.373069431984	118
0	701	177.999991380728	119
0	703	179.093568479062	120
0	709	180.161999539358	121
0	721	182.134787129823	122
0	727	183.864878337251	123
0	733	184.976778095707	124
0	741	186.315486120412	125
0	747	187.820005289398	126
0	759	189.682917011322	127
0	767	190.78758562112	128
0	773	192.035846846064	129
0	775	193.89167521836	130
0	785	195.138595703875	131
0	791	196.905880216162	132
0	797	198.088474504768	133
0	799	199.115102392507	134
0	805	201.035799736974	135
0	811	202.243425396157	136
0	819	203.717262499619	137
0	831	205.093145713562	138
0	839	206.541753229804	139
0	851	208.470020182317	140
0	855	209.552346279265	141
0	861	211.444810131218	142
0	869	212.651264189396	143
0	877	214.438816024575	144
0	879	216.225932320233	145
0	893	217.757390642425	146
0	899	219.617627638046	147
0	911	221.362099110734	148
0	919	223.122942310179	149
0	921	224.184782389671	150
0	927	225.959679037918	151
0	933	227.316132898795	152
0	935	228.454487590472	153
0	939	230.084159006485	154
0	945	231.548392019588	155
0	953	233.223363624773	156
0	963	234.671052626221	157
0	971	236.541134340575	158
0	975	238.353932055298	159
0	983	239.482445474135	160
1	3	0.099235323579	0
1	11	3.221193920457	1
1	43	13.105233937573	2
1	49	14.509960050634	3
1	65	16.936554945772	4
1	95	23.093328794226	5
1	103	26.537950010489	6
1	109	28.471619196556	7
1	141	33.408885949383	8
1	165	42.819312222185	9
1	181	45.574304600831	10
1	195	49.851093771876	11
1	203	50.964425438414	12
1	211	54.119996919269	13
1	225	57.955042830071	14
1	239	59.759161926597	15
1	257	66.033516437805	16
1	287	74.139038766918	17
1	299	79.898542122764	18
1	317	83.611661979975	19
1	323	85.5706531859	20
1	347	93.419930098836	21
1	381	99.993097605451	22
1	425	111.811176001202	23
1	453	119.135797453246	24
1	477	122.467025136762	25
1	481	124.004558984802	26
1	495	126.61955786931	27
1	503	127.986795939059	28
1	519	129.844446872651	29
1	529	133.983704381335	30
1	541	138.110457486751	31
1	547	139.482834577621	32
1	553	140.92360700876	33
1	563	142.369007294795	34
1	567	143.448412125727	35
1	643	163.92500172349	36
1	651	165.784912958327	37
1	681	171.067566204846	38
1	705	179.124742488328	39
1	711	180.186587109284	40
1	723	182.151110065631	41
1	729	183.878632760211	42
1	743	186.336690068606	43
1	749	187.856925656546	44
1	787	195.152286678086	45
1	807	201.070729152672	46
1	813	202.260056306122	47
1	821	203.742083261162	48
1	841	206.552212913361	49
1	853	208.482251180379	50
1	863	211.455602606898	51
1	881	216.244705420342	52
1	901	219.665667333782	53
2	5	0.178726466452	0
2	13	3.249922157126	1
2	19	4.577837851133	2
2	35	8.745963436357	3
2	45	13.11743480602	4
2	51	14.520144626414	5
2	67	16.946750515323	6
2	71	16.994709257353	7
2	81	20.482246435305	8
2	89	22.06108073729	9
2	97	23.125597623086	10
2	105	26.558106605016	11
2	111	28.485910091427	12
2	117	30.16709479743	13
2	121	30.212277714935	14
2	127	32.088426253148	15
2	131	32.123221346567	16
2	135	32.152368891337	17
2	143	33.445398476099	18
2	167	42.837052130707	19
2	183	45.589212554021	20
2	187	45.631275417836	21
2	197	49.861460405866	22
2	205	50.975193914067	23
2	213	54.143504475651	24
2	227	57.968860741755	25
2	231	57.994801258039	26
2	235	58.028293668409	27
2	241	59.769933528295	28
2	259	66.067356109447	29
2	275	69.505448509967	30
2	301	79.912920735488	31
2	309	81.724216168796	32
2	313	81.777546943041	33
2	319	83.638131328385	34
2	325	85.58277596722	35
2	335	88.931331450268	36
2	349	93.430301612296	37
2	363	96.342892881428	38
2	367	96.376055932004	39
2	383	100.019300626802	40
2	407	107.822095379401	41
2	431	113.325824272506	42
2	435	113.363105222545	43
2	439	113.405130462335	44
2	455	119.175716049179	45
2	459	119.206566970581	46
2	463	119.248839787011	47
2	483	124.03771654287	48
2	491	125.483082521118	49
2	497	126.638168308796	50
2	505	128.003481936018	51
2	509	128.032459665321	52
2	513	128.057294010421	53
2	521	129.867355991618	54
2	531	134.00086120278	55
2	543	138.123564565049	56
2	549	139.493303518197	57
2	555	140.952305396336	58
2	559	140.999178434362	59
2	573	144.938905647908	60
2	605	156.3022121894	61
2	613	157.890939649774	62
2	617	157.946510253612	63
2	625	159.292276410058	64
2	635	162.729321995566	65
2	639	162.767204265715	66
2	645	163.938109013747	67
2	653	165.812039003225	68
2	657	165.858623451476	69
2	661	165.90502384208	70
2	665	165.953865698195	71
2	671	166.801991290379	72
2	683	171.078152717328	73
2	691	174.624848186395	74
2	695	174.655010513802	75
2	707	179.17177228485	76
2	713	180.198402669541	77
2	717	180.23343416777	78
2	725	182.170617701479	79
2	731	183.930227004015	80
2	737	185.00711986145	81
2	745	186.351083001626	82
2	751	187.867052495198	83
2	755	187.904988379955	84
2	771	190.824219873706	85
2	779	193.929413627045	86
2	783	193.961205159425	87
2	789	195.162878311896	88
2	795	196.935211197972	89
2	809	201.088020918761	90
2	815	202.295755230168	91
2	823	203.754347276208	92
2	827	203.783541672515	93
2	843	206.591273372928	94
2	847	206.637810814487	95
2	859	209.591925171654	96
2	865	211.474008741155	97
2	883	216.256329803669	98
2	887	216.296533459209	99
2	891	216.353253126104	100
2	903	219.675705342672	101
2	907	219.711784815026	102
2	925	224.234942233675	103
2	957	233.259799927806	104
2	961	233.282620315017	105
2	967	234.741451841778	106
3	17	4.567560154857	0
3	27	7.533078529928	1
3	33	8.735074641071	2
3	57	15.642695435995	3
3	79	20.464622566776	4
3	87	22.049572902336	5
3	115	30.156977419293	6
3	125	32.075720927114	7
3	155	40.050580030851	8
3	173	44.329005367406	9
3	217	55.70632314284	10
3	251	64.39409615443	11
3	265	67.768250835642	12
3	273	69.486177255571	13
3	281	71.418435090382	14
3	291	75.284623874664	15
3	307	81.70996527706	16
3	333	88.883713015177	17
3	341	92.250661094456	18
3	355	95.004010179795	19
3	361	96.323166403472	20
3	373	98.765775144665	21
3	389	101.284311965105	22
3	393	102.738038871628	23
3	401	106.542544947693	24
3	405	107.805805291592	25
3	411	109.473039723346	26
3	419	110.691246096669	27
3	429	113.314748784993	28
3	445	116.237497610244	29
3	469	120.491530936394	30
3	489	125.465608051636	31
3	571	144.910815777412	32
3	581	148.149776970479	33
3	593	153.367823019053	34
3	603	156.272465723368	35
3	611	157.87421209252	36
3	623	159.275312160001	37
3	633	162.706703198358	38
3	669	166.790070408916	39
3	689	174.606391824216	40
3	735	184.994199288163	41
3	761	189.697004385234	42
3	769	190.803080691937	43
3	777	193.904550301416	44
3	793	196.923673643137	45
3	801	199.135892341369	46
3	833	205.126500010812	47
3	857	209.575110687578	48
3	871	212.662391217602	49
3	895	217.775575565437	50
3	913	221.377604717055	51
3	923	224.217456171999	52
3	929	225.993756662277	53
3	937	228.494435924482	54
3	941	230.094881518885	55
3	947	231.560895651949	56
3	955	233.248709592749	57
3	965	234.724559182056	58
3	973	236.576149466602	59
3	977	238.377229824994	60
3	985	239.494431403886	61
4	21	4.612367515935	0
4	53	14.53992708523	1
4	61	15.670119375705	2
4	69	16.98162296927	3
4	73	17.013489315856	4
4	83	20.504101222692	5
4	91	22.100011548079	6
4	119	30.186815361763	7
4	129	32.113192602047	8
4	133	32.134881063902	9
4	137	32.174714672811	10
4	145	33.463413039572	11
4	159	40.072412628282	12
4	169	42.881369085978	13
4	185	45.613150698456	14
4	199	49.87158676061	15
4	229	57.980018622741	16
4	233	58.007230260846	17
4	261	66.088973493088	18
4	277	69.521463339205	19
4	303	79.944026507296	20
4	311	81.737580955122	21
4	327	85.602244270277	22
4	351	93.452276790753	23
4	365	96.354730076348	24
4	377	98.816482457304	25
4	385	100.030173064625	26
4	433	113.351448552581	27
4	437	113.384513326931	28
4	457	119.195527317877	29
4	461	119.229417524921	30
4	465	119.271025070176	31
4	473	120.525660083358	32
4	485	124.053015852742	33
4	499	126.648477022263	34
4	507	128.019314183887	35
4	511	128.044740048256	36
4	515	128.081163852874	37
4	533	134.013339716811	38
4	557	140.979330164461	39
4	575	144.954885595225	40
4	607	156.325372427932	41
4	615	157.917685313568	42
4	619	157.973607764058	43
4	627	159.326442107606	44
4	637	162.749821748	45
4	647	163.958005939001	46
4	655	165.846856820721	47
4	659	165.873264363136	48
4	663	165.933624007923	49
4	673	166.813067227617	50
4	693	174.635987310335	51
4	697	174.668637599551	52
4	715	180.219450968442	53
4	719	180.247788351649	54
4	739	185.018453147534	55
4	753	187.889023695965	56
4	757	187.916434085562	57
4	765	189.740874240884	58
4	781	193.946842799257	59
4	817	202.306041997958	60
4	825	203.771954628256	61
4	829	203.797758611212	62
4	845	206.627233029179	63
4	849	206.661638714254	64
4	867	211.488425804842	65
4	875	212.706414587915	66
4	885	216.272295737714	67
4	889	216.323450533271	68
4	905	219.68873395174	69
4	909	219.729267484345	70
4	917	221.420595699693	71
4	951	231.614282874401	72
4	959	233.271213731596	73
4	969	234.75803441953	74
5	29	7.55931174352	0
5	59	15.653784950126	1
5	157	40.061085642746	2
5	175	44.373937094759	3
5	219	55.718028551796	4
5	253	64.413859006746	5
5	267	67.808243444334	6
5	343	92.27055175736	7
5	357	95.018470179266	8
5	375	98.799192765609	9
5	395	102.75278580454	10
5	413	109.484539584226	11
5	421	110.705300012358	12
5	447	116.247723445497	13
5	471	120.504502461462	14
5	583	148.160154623058	15
5	595	153.393717751436	16
5	763	189.724747485357	17
5	803	199.146731914862	18
5	835	205.145686802858	19
5	873	212.687918797366	20
5	897	217.796049087446	21
5	915	221.401492664691	22
5	931	226.01159102362	23
5	943	230.110438844911	24
5	949	231.594424976324	25
5	979	238.39929378367	26
5	987	239.549844027611	27
6	54	14.54992708523	0
6	178	44.398523273543	1
6	278	69.531463339205	2
6	304	79.954026507296	3
6	352	93.462276790753	4
6	474	120.535660083358	5
6	486	124.063015852742	6
6	534	134.023339716811	7
6	586	148.180536086538	8
6	608	156.335372427932	9
6	674	166.823067227617	10
6	698	174.678637599551	11
6	758	187.926434085562	12
6	766	189.750874240884	13
6	952	231.624282874401	14
6	970	234.76803441953	15
6	982	238.44870912765	16
7	177	44.388523273543	0
7	269	67.820518855369	1
7	415	109.518578624996	2
7	585	148.170536086538	3
7	597	153.416295283106	4
7	837	205.187932628245	5
7	981	238.43870912765	6

