version 2
run General-4-20231008-06:29:29-15849
attr configname General
attr datetime 20231008-06:29:29
attr experiment General
attr inifile omnetpp.ini
attr iterationvars ""
attr iterationvarsf ""
attr measurement ""
attr network Network1
attr processid 15849
attr repetition 4
attr replication #4
attr resultdir results
attr runnumber 4
attr seedset 4
param Network1.node[*].transmissionTime "uniform(1s, 2s)"
param Network1.node[*].delayTime "uniform(0.01s, 0.2s)"
param Network1.node[*].processingTime exponential(0.01s)
param Network1.node[*].lossProbability 0.75
param Reliability.node[*].transmissionTime "uniform(1s, 2s)"
param Reliability.node[*].delayTime "uniform(0.01s, 0.2s)"
param Reliability.node[*].processingTime exponential(0.01s)
param Reliability.node[*].lossProbability 0.0

vector 0 Network1.node[0] txVector ETV
vector 1 Network1.node[1] txVector ETV
vector 2 Network1.node[3] txVector ETV
vector 3 Network1.node[2] txVector ETV
vector 4 Network1.node[4] txVector ETV
0	1	0.193735669288	0
0	3	2.094357123985	1
0	9	3.267052448974	2
0	11	4.864608654673	3
0	17	6.006072827535	4
0	19	7.909251353856	5
0	29	9.542214453373	6
0	31	10.933980648791	7
0	33	12.745928398951	8
0	35	14.358453742147	9
0	37	15.624927525327	10
0	51	17.268841788557	11
0	53	18.334551327315	12
0	55	19.510412562325	13
0	57	21.376295317349	14
0	59	23.219823436032	15
0	61	25.144976595103	16
0	67	27.015283070424	17
0	69	28.051041258651	18
0	71	29.279803928838	19
0	73	30.490984484472	20
0	75	31.671705078718	21
0	77	32.987821297639	22
0	79	34.228859902744	23
0	81	35.604228336516	24
0	83	37.23689231478	25
0	89	38.459924835398	26
0	91	39.811598546955	27
0	93	41.279348899995	28
0	95	42.638115273242	29
0	97	43.721284367995	30
0	99	44.974193977112	31
0	105	46.021599472188	32
0	107	47.832504409053	33
0	109	48.958686069739	34
0	111	50.034392445036	35
0	125	51.719980648407	36
0	127	53.096400119052	37
0	133	54.943122390811	38
0	135	56.612632265002	39
0	137	57.692611504965	40
0	139	58.737259333408	41
0	141	59.832457410791	42
0	147	61.049887699694	43
0	149	62.114139076941	44
0	151	64.058089750041	45
0	153	65.22096147194	46
0	155	66.812835117722	47
0	157	68.763189777652	48
0	163	70.129959446531	49
0	165	71.436972118136	50
0	167	73.27012066931	51
0	169	75.199489269559	52
0	183	76.328424603366	53
0	185	77.809884546711	54
0	191	79.737293157182	55
0	193	81.704972786517	56
0	195	83.025588433412	57
0	197	84.911385526336	58
0	199	86.456762440424	59
0	201	87.827868623348	60
0	203	88.964794441514	61
0	205	90.077304777146	62
0	211	91.149588032781	63
0	213	93.026380889506	64
0	215	94.963515394988	65
0	217	96.466163467771	66
0	223	98.213658281291	67
0	225	99.675987643577	68
0	227	100.821449970981	69
0	241	102.130244535549	70
0	251	103.691712999639	71
0	253	105.354015434782	72
0	255	106.937558966379	73
0	257	108.664421990204	74
0	259	110.568798612028	75
0	261	111.585516273433	76
0	263	113.482208128476	77
0	265	114.986109111614	78
0	267	116.600928560521	79
0	273	117.735674206556	80
0	275	119.22746184414	81
0	277	121.158876111654	82
0	279	123.094769945757	83
0	281	124.594731399945	84
0	299	126.004366889053	85
0	301	127.895354628486	86
0	303	129.211631134308	87
0	305	130.965486584154	88
0	319	132.24471852455	89
0	321	134.242122512466	90
0	327	135.536755070944	91
0	337	136.959121017174	92
0	339	138.686849688568	93
0	341	140.37663498257	94
0	347	141.828255674957	95
0	353	143.780226095502	96
0	355	145.770343015591	97
0	357	147.654385402488	98
0	359	148.674327762254	99
0	361	149.777123002723	100
0	363	150.871203645287	101
0	365	152.137000971395	102
0	367	153.331948659071	103
0	373	154.726084992211	104
0	375	156.103930008286	105
0	389	157.495598066287	106
0	391	158.690829224341	107
0	393	160.071663489255	108
0	399	162.019100622429	109
0	401	163.990803943636	110
0	403	165.034726451771	111
0	409	166.319971045401	112
0	411	167.744763301607	113
0	413	169.500412590723	114
0	415	170.751911056848	115
0	417	172.615258179294	116
0	419	174.202892585579	117
0	421	175.911037459658	118
0	423	176.93643916111	119
0	433	178.072794350251	120
0	435	179.163386711306	121
0	441	180.690901116622	122
0	447	182.616088229618	123
0	453	183.716638460443	124
0	455	185.544746515494	125
0	457	186.933796846461	126
0	459	188.045671162814	127
0	473	189.595946387773	128
0	475	190.791970781203	129
0	477	192.24580001986	130
0	487	193.595531117556	131
0	489	194.886370970787	132
0	491	196.632198534825	133
0	497	198.583867126995	134
0	503	200.0887269796	135
0	509	201.623747146142	136
0	511	203.025446234656	137
0	513	204.823540277931	138
0	515	206.179161935964	139
0	517	207.486566823361	140
0	519	208.620438934456	141
0	521	210.509449427168	142
0	523	211.916205253371	143
0	525	213.781299709494	144
0	527	215.511515040801	145
0	529	217.108018317645	146
0	531	218.923184707215	147
0	537	220.588441480802	148
0	539	221.657410914929	149
0	541	223.556635289372	150
0	543	225.34124602509	151
0	545	226.345118662727	152
0	547	228.278661291732	153
0	549	229.496577427641	154
0	551	230.761493150762	155
0	553	232.642894745956	156
0	563	234.600654498127	157
0	565	235.633713965689	158
0	567	236.840676989791	159
0	569	238.681731293363	160
1	5	2.123710255091	0
1	5	2.123710255091	1
1	5	2.123710255091	2
1	13	4.877151204061	3
1	13	4.877151204061	4
1	13	4.877151204061	5
1	21	7.919303078898	6
1	21	7.919303078898	7
1	21	7.919303078898	8
1	39	15.65159089446	9
1	39	15.65159089446	10
1	39	15.65159089446	11
1	63	25.173010263293	12
1	63	25.173010263293	13
1	63	25.173010263293	14
1	85	37.24838603333	15
1	85	37.24838603333	16
1	85	37.24838603333	17
1	101	45.010702171106	18
1	101	45.010702171106	19
1	101	45.010702171106	20
1	113	50.073781055775	21
1	113	50.073781055775	22
1	113	50.073781055775	23
1	129	53.119621721204	24
1	129	53.119621721204	25
1	129	53.119621721204	26
1	143	59.858908919054	27
1	143	59.858908919054	28
1	143	59.858908919054	29
1	159	68.773408335684	30
1	159	68.773408335684	31
1	159	68.773408335684	32
1	171	75.227275852182	33
1	171	75.227275852182	34
1	171	75.227275852182	35
1	187	77.821837495972	36
1	187	77.821837495972	37
1	187	77.821837495972	38
1	207	90.089452056244	39
1	207	90.089452056244	40
1	207	90.089452056244	41
1	219	96.482861116519	42
1	219	96.482861116519	43
1	219	96.482861116519	44
1	229	100.845442230417	45
1	229	100.845442230417	46
1	229	100.845442230417	47
1	243	102.140349349654	48
1	243	102.140349349654	49
1	243	102.140349349654	50
1	269	116.617314545623	51
1	269	116.617314545623	52
1	269	116.617314545623	53
1	283	124.621382868075	54
1	283	124.621382868075	55
1	283	124.621382868075	56
1	307	130.976760108661	57
1	307	130.976760108661	58
1	307	130.976760108661	59
1	323	134.263152097213	60
1	323	134.263152097213	61
1	323	134.263152097213	62
1	329	135.567717115832	63
1	329	135.567717115832	64
1	329	135.567717115832	65
1	343	140.393259302816	66
1	343	140.393259302816	67
1	343	140.393259302816	68
1	349	141.838421884803	69
1	349	141.838421884803	70
1	349	141.838421884803	71
1	369	153.357529099447	72
1	369	153.357529099447	73
1	369	153.357529099447	74
1	377	156.117530634339	75
1	377	156.117530634339	76
1	377	156.117530634339	77
1	395	160.084347227023	78
1	395	160.084347227023	79
1	395	160.084347227023	80
1	405	165.04787991842	81
1	405	165.04787991842	82
1	405	165.04787991842	83
1	425	176.954344684959	84
1	425	176.954344684959	85
1	425	176.954344684959	86
1	437	179.175672184732	87
1	437	179.175672184732	88
1	437	179.175672184732	89
1	443	180.702891402689	90
1	443	180.702891402689	91
1	443	180.702891402689	92
1	449	182.631818272352	93
1	449	182.631818272352	94
1	449	182.631818272352	95
1	461	188.071373362641	96
1	461	188.071373362641	97
1	461	188.071373362641	98
1	479	192.257827548325	99
1	479	192.257827548325	100
1	479	192.257827548325	101
1	493	196.653068977365	102
1	493	196.653068977365	103
1	493	196.653068977365	104
1	499	198.594817649327	105
1	499	198.594817649327	106
1	499	198.594817649327	107
1	505	200.102214657935	108
1	505	200.102214657935	109
1	505	200.102214657935	110
1	533	218.934780476021	111
1	533	218.934780476021	112
1	533	218.934780476021	113
1	555	232.655652660836	114
1	555	232.655652660836	115
1	555	232.655652660836	116
2	25	7.933789357634	0
2	25	7.933789357634	1
2	25	7.933789357634	2
2	43	15.661996826772	3
2	43	15.661996826772	4
2	43	15.661996826772	5
2	117	50.104677758613	6
2	117	50.104677758613	7
2	117	50.104677758613	8
2	179	75.291583347905	9
2	179	75.291583347905	10
2	179	75.291583347905	11
2	237	100.884230171738	12
2	237	100.884230171738	13
2	237	100.884230171738	14
2	247	102.150724930805	15
2	247	102.150724930805	16
2	247	102.150724930805	17
2	287	124.638110220122	18
2	287	124.638110220122	19
2	287	124.638110220122	20
2	311	131.001631056074	21
2	311	131.001631056074	22
2	311	131.001631056074	23
2	333	135.5810092771	24
2	333	135.5810092771	25
2	333	135.5810092771	26
2	381	156.174269101602	27
2	381	156.174269101602	28
2	381	156.174269101602	29
2	429	176.966383749858	30
2	429	176.966383749858	31
2	429	176.966383749858	32
2	465	188.082683442706	33
2	465	188.082683442706	34
2	465	188.082683442706	35
2	559	232.679148047381	36
2	559	232.679148047381	37
2	559	232.679148047381	38
3	47	15.692117594238	0
3	47	15.692117594238	1
3	47	15.692117594238	2
3	175	75.253890768329	3
3	175	75.253890768329	4
3	175	75.253890768329	5
3	233	100.860695310012	6
3	233	100.860695310012	7
3	233	100.860695310012	8
3	292	124.656138198667	9
3	292	124.656138198667	10
3	292	124.656138198667	11
3	315	131.023285671511	12
3	315	131.023285671511	13
3	315	131.023285671511	14
3	466	188.084650817301	15
3	466	188.084650817301	16
3	466	188.084650817301	17
3	483	192.276206248656	18
3	483	192.276206248656	19
3	483	192.276206248656	20
4	121	50.119084119141	0
4	121	50.119084119141	1
4	121	50.119084119141	2
4	291	124.650106502751	3
4	291	124.650106502751	4
4	291	124.650106502751	5
4	385	156.185145403277	6
4	385	156.185145403277	7
4	385	156.185145403277	8

