version 2
run General-2-20231008-06:29:29-15849
attr configname General
attr datetime 20231008-06:29:29
attr experiment General
attr inifile omnetpp.ini
attr iterationvars ""
attr iterationvarsf ""
attr measurement ""
attr network Network1
attr processid 15849
attr repetition 2
attr replication #2
attr resultdir results
attr runnumber 2
attr seedset 2
param Network1.node[*].transmissionTime "uniform(1s, 2s)"
param Network1.node[*].delayTime "uniform(0.01s, 0.2s)"
param Network1.node[*].processingTime exponential(0.01s)
param Network1.node[*].lossProbability 0.75
param Reliability.node[*].transmissionTime "uniform(1s, 2s)"
param Reliability.node[*].delayTime "uniform(0.01s, 0.2s)"
param Reliability.node[*].processingTime exponential(0.01s)
param Reliability.node[*].lossProbability 0.0

vector 0 Network1.node[0] txVector ETV
vector 1 Network1.node[1] txVector ETV
vector 2 Network1.node[2] txVector ETV
vector 3 Network1.node[3] txVector ETV
vector 4 Network1.node[4] txVector ETV
vector 5 Network1.node[5] rxVector ETV
0	1	0.092839031499	0
0	3	1.277921112972	1
0	5	3.20946197656	2
0	7	5.157192587406	3
0	9	6.641941683619	4
0	11	7.962478119899	5
0	13	9.116904795422	6
0	15	10.815767484736	7
0	17	11.935718028592	8
0	19	13.420893943422	9
0	21	15.053631674052	10
0	23	16.871858396121	11
0	25	18.554884391158	12
0	27	20.053445558782	13
0	29	21.640242537736	14
0	35	23.359996768666	15
0	45	24.767304601168	16
0	47	25.883497923866	17
0	49	27.065224961165	18
0	51	28.559514729093	19
0	53	30.125279859427	20
0	55	31.347115026574	21
0	57	33.114606203066	22
0	59	34.691914273213	23
0	61	35.859737587647	24
0	63	37.22720895663	25
0	65	38.695882539052	26
0	67	40.350148721152	27
0	69	42.143238464157	28
0	71	43.80630025968	29
0	77	45.419329953399	30
0	79	46.567894733763	31
0	89	48.420175766824	32
0	91	49.678908937862	33
0	93	51.488084222907	34
0	111	52.841759596271	35
0	113	54.588391009271	36
0	115	56.019928779239	37
0	129	57.908232525708	38
0	131	59.334255052749	39
0	133	60.65712926981	40
0	135	62.419059268683	41
0	141	64.351687829494	42
0	143	66.236159428739	43
0	145	67.789793274616	44
0	147	69.363435772964	45
0	153	70.757369064278	46
0	155	72.48586756668	47
0	161	73.84162119056	48
0	163	75.719921479252	49
0	165	77.08324737057	50
0	167	78.586454287655	51
0	169	80.353942546313	52
0	171	82.268418118143	53
0	173	84.094786123856	54
0	175	85.506532564544	55
0	181	87.137375220674	56
0	183	89.099834796292	57
0	185	90.746849022125	58
0	187	92.704694693926	59
0	189	94.508146823169	60
0	191	95.737532787276	61
0	193	97.616734817642	62
0	195	99.209231180855	63
0	197	100.995403426717	64
0	203	102.527547867521	65
0	213	104.004391273734	66
0	231	105.220197671111	67
0	233	106.953020158707	68
0	235	108.849394035077	69
0	237	110.687224583019	70
0	239	112.223678281082	71
0	241	113.544996864645	72
0	243	114.942250856914	73
0	245	116.219690072135	74
0	247	118.155938115454	75
0	249	119.619680723426	76
0	251	121.471969683672	77
0	253	122.684737054649	78
0	255	123.684860638826	79
0	257	124.777756904735	80
0	259	125.952873293794	81
0	261	127.467732460954	82
0	263	129.347722812108	83
0	265	131.132514735003	84
0	267	132.662335910852	85
0	269	133.936173780373	86
0	271	134.962557926559	87
0	277	136.832266547735	88
0	279	138.337678182888	89
0	281	139.672772847134	90
0	283	140.834468279983	91
0	289	142.053758252896	92
0	291	143.105246443087	93
0	301	144.728518776148	94
0	303	145.74462904131	95
0	305	147.679664769228	96
0	307	149.070250449255	97
0	309	150.980905966153	98
0	311	152.800371341658	99
0	313	153.890741719649	100
0	315	155.248982027423	101
0	317	156.267967155453	102
0	319	157.717993877612	103
0	325	158.748362129571	104
0	327	160.182108044874	105
0	329	161.769282246258	106
0	335	163.761266495351	107
0	337	165.634393835457	108
0	339	167.119447601743	109
0	341	168.863309631839	110
0	343	170.61749058428	111
0	345	171.94117378678	112
0	347	173.676525180943	113
0	349	174.862114917038	114
0	351	175.994206675112	115
0	357	177.004178581077	116
0	363	178.852640583895	117
0	365	180.529780326893	118
0	375	182.41560772808	119
0	377	183.891146698983	120
0	379	185.056013841431	121
0	385	186.883467191846	122
0	387	188.725464875826	123
0	389	189.757269753159	124
0	391	190.825004992324	125
0	409	192.453186210959	126
0	411	193.799284360154	127
0	425	195.338466971662	128
0	427	196.757374283873	129
0	429	197.825973470944	130
0	443	198.923521541541	131
0	445	200.68052618114	132
0	451	202.089725827581	133
0	453	203.955906069387	134
0	455	205.929905435551	135
0	461	207.685918442687	136
0	467	209.673223298291	137
0	469	211.271769679865	138
0	471	212.422256144477	139
0	477	213.596698967988	140
0	483	214.598239703352	141
0	489	216.56263660222	142
0	491	217.902299873314	143
0	501	219.553392063377	144
0	507	220.72903674959	145
0	509	222.120011011621	146
0	511	223.506594472349	147
0	513	225.241279780882	148
0	515	227.214831097069	149
0	517	228.457168600074	150
0	519	229.66378735124	151
0	521	231.088196716056	152
0	523	232.806131533132	153
0	525	234.65780380696	154
0	527	236.008527347138	155
0	529	237.371821993049	156
0	531	238.708114963975	157
1	31	21.653233313036	0
1	31	21.653233313036	1
1	31	21.653233313036	2
1	37	23.371944572619	3
1	37	23.371944572619	4
1	37	23.371944572619	5
1	73	43.863242456355	6
1	73	43.863242456355	7
1	73	43.863242456355	8
1	81	46.585018561397	9
1	81	46.585018561397	10
1	81	46.585018561397	11
1	95	51.504392380557	12
1	95	51.504392380557	13
1	95	51.504392380557	14
1	117	56.058263774575	15
1	117	56.058263774575	16
1	117	56.058263774575	17
1	137	62.441480074404	18
1	137	62.441480074404	19
1	137	62.441480074404	20
1	149	69.399546834055	21
1	149	69.399546834055	22
1	149	69.399546834055	23
1	157	72.498261988764	24
1	157	72.498261988764	25
1	157	72.498261988764	26
1	177	85.520716724727	27
1	177	85.520716724727	28
1	177	85.520716724727	29
1	199	101.039914839098	30
1	199	101.039914839098	31
1	199	101.039914839098	32
1	205	102.54301478559	33
1	205	102.54301478559	34
1	205	102.54301478559	35
1	215	104.030852870565	36
1	215	104.030852870565	37
1	215	104.030852870565	38
1	273	134.975779804135	39
1	273	134.975779804135	40
1	273	134.975779804135	41
1	285	140.86257878252	42
1	285	140.86257878252	43
1	285	140.86257878252	44
1	293	143.118618937997	45
1	293	143.118618937997	46
1	293	143.118618937997	47
1	321	157.731145835133	48
1	321	157.731145835133	49
1	321	157.731145835133	50
1	331	161.785000764162	51
1	331	161.785000764162	52
1	331	161.785000764162	53
1	353	176.008875417301	54
1	353	176.008875417301	55
1	353	176.008875417301	56
1	359	177.016964704864	57
1	359	177.016964704864	58
1	359	177.016964704864	59
1	367	180.541447553536	60
1	367	180.541447553536	61
1	367	180.541447553536	62
1	381	185.073772562127	63
1	381	185.073772562127	64
1	381	185.073772562127	65
1	393	190.845082024018	66
1	393	190.845082024018	67
1	393	190.845082024018	68
1	413	193.814926868605	69
1	413	193.814926868605	70
1	413	193.814926868605	71
1	431	197.838539132079	72
1	431	197.838539132079	73
1	431	197.838539132079	74
1	447	200.704652576156	75
1	447	200.704652576156	76
1	447	200.704652576156	77
1	457	205.969360265667	78
1	457	205.969360265667	79
1	457	205.969360265667	80
1	463	207.696331036369	81
1	463	207.696331036369	82
1	463	207.696331036369	83
1	473	212.43386577325	84
1	473	212.43386577325	85
1	473	212.43386577325	86
1	479	213.607120416648	87
1	479	213.607120416648	88
1	479	213.607120416648	89
1	485	214.610257026703	90
1	485	214.610257026703	91
1	485	214.610257026703	92
1	493	217.922547449594	93
1	493	217.922547449594	94
1	493	217.922547449594	95
1	503	219.566335965017	96
1	503	219.566335965017	97
1	503	219.566335965017	98
1	533	238.718736990919	99
1	533	238.718736990919	100
1	533	238.718736990919	101
2	41	23.388981520511	0
2	41	23.388981520511	1
2	41	23.388981520511	2
2	103	51.541253794472	3
2	103	51.541253794472	4
2	103	51.541253794472	5
2	219	104.045102988309	6
2	219	104.045102988309	7
2	219	104.045102988309	8
2	297	143.131227055063	9
2	297	143.131227055063	10
2	297	143.131227055063	11
2	371	180.570331436975	12
2	371	180.570331436975	13
2	371	180.570331436975	14
2	397	190.879936846078	15
2	397	190.879936846078	16
2	397	190.879936846078	17
2	417	193.843399572041	18
2	417	193.843399572041	19
2	417	193.843399572041	20
2	435	197.852831613664	21
2	435	197.852831613664	22
2	435	197.852831613664	23
3	85	46.645024854485	0
3	85	46.645024854485	1
3	85	46.645024854485	2
3	99	51.530397181539	3
3	99	51.530397181539	4
3	99	51.530397181539	5
3	121	56.080371803234	6
3	121	56.080371803234	7
3	121	56.080371803234	8
3	209	102.55414168686	9
3	209	102.55414168686	10
3	209	102.55414168686	11
3	223	104.06054570007	12
3	223	104.06054570007	13
3	223	104.06054570007	14
3	405	190.909362183471	15
3	405	190.909362183471	16
3	405	190.909362183471	17
3	421	193.857613076617	18
3	421	193.857613076617	19
3	421	193.857613076617	20
3	439	197.863603241008	21
3	439	197.863603241008	22
3	439	197.863603241008	23
3	497	217.946420528867	24
3	497	217.946420528867	25
3	497	217.946420528867	26
4	104	51.544959646808	0
4	104	51.544959646808	1
4	104	51.544959646808	2
4	125	56.096930736375	3
4	125	56.096930736375	4
4	125	56.096930736375	5
4	227	104.079627244679	6
4	227	104.079627244679	7
4	227	104.079627244679	8
4	401	190.89689267663	9
4	401	190.89689267663	10
4	401	190.89689267663	11
5	230	104.089627244679	0
5	404	190.90689267663	1

