version 2
run General-0-20231008-06:29:28-15849
attr configname General
attr datetime 20231008-06:29:28
attr experiment General
attr inifile omnetpp.ini
attr iterationvars ""
attr iterationvarsf ""
attr measurement ""
attr network Network1
attr processid 15849
attr repetition 0
attr replication #0
attr resultdir results
attr runnumber 0
attr seedset 0
param Network1.node[*].transmissionTime "uniform(1s, 2s)"
param Network1.node[*].delayTime "uniform(0.01s, 0.2s)"
param Network1.node[*].processingTime exponential(0.01s)
param Network1.node[*].lossProbability 0.75
param Reliability.node[*].transmissionTime "uniform(1s, 2s)"
param Reliability.node[*].delayTime "uniform(0.01s, 0.2s)"
param Reliability.node[*].processingTime exponential(0.01s)
param Reliability.node[*].lossProbability 0.0

vector 0 Network1.node[0] txVector ETV
vector 1 Network1.node[1] txVector ETV
vector 2 Network1.node[3] txVector ETV
vector 3 Network1.node[4] txVector ETV
vector 4 Network1.node[5] rxVector ETV
vector 5 Network1.node[2] txVector ETV
0	1	0.114274565438	0
0	3	1.707119181827	1
0	5	3.551384925917	2
0	7	5.409330545766	3
0	9	7.256582283023	4
0	11	8.88014597942	5
0	13	10.264527687643	6
0	19	11.562062292898	7
0	25	13.039727404553	8
0	31	14.432512197716	9
0	33	16.080684074273	10
0	47	17.448925611635	11
0	49	19.127805145297	12
0	51	20.848437796885	13
0	53	22.430457588125	14
0	59	23.967830816356	15
0	61	25.441431239087	16
0	67	26.62776358363	17
0	69	27.762981756895	18
0	71	29.087122761018	19
0	73	30.236797624805	20
0	75	31.459119010323	21
0	81	32.845607988376	22
0	83	34.458671450222	23
0	85	36.361020028431	24
0	87	37.460300379971	25
0	89	39.430109448571	26
0	91	41.083249480769	27
0	93	42.254159066899	28
0	95	43.612311237099	29
0	97	45.362997375967	30
0	99	46.970828042671	31
0	101	48.295875270225	32
0	103	49.334300695758	33
0	109	50.968574748913	34
0	111	52.603633625971	35
0	113	54.598933191577	36
0	115	56.180783523785	37
0	117	57.595152111797	38
0	119	59.069849616921	39
0	121	60.693359722922	40
0	123	62.031367340431	41
0	125	63.706119662689	42
0	127	65.023321407454	43
0	129	66.801666889179	44
0	131	68.751237940581	45
0	149	70.413764808632	46
0	151	71.433752480967	47
0	153	72.875463402437	48
0	155	74.855050132915	49
0	157	76.214494601896	50
0	159	77.695388138134	51
0	161	79.384049324391	52
0	163	81.264525217542	53
0	165	83.182760690411	54
0	167	84.399582823578	55
0	169	85.964771689221	56
0	171	87.829874253206	57
0	173	89.338843214165	58
0	175	91.255566170744	59
0	177	93.176723782744	60
0	183	94.259836269382	61
0	185	96.102178348533	62
0	187	97.749352487109	63
0	189	99.590738609272	64
0	191	100.855468773588	65
0	193	102.253289525236	66
0	195	103.806111009398	67
0	201	104.971051469983	68
0	203	106.54066987436	69
0	205	108.244407155157	70
0	223	109.532883587598	71
0	225	111.511454511506	72
0	227	112.627656421463	73
0	241	114.394680124081	74
0	243	116.054348538236	75
0	249	117.587554789919	76
0	251	119.206363350924	77
0	253	120.681230872476	78
0	255	122.151363060882	79
0	257	123.86743759441	80
0	259	125.155428598242	81
0	261	126.53889082426	82
0	263	128.288060660314	83
0	265	130.166512851443	84
0	267	131.269376211407	85
0	269	132.361750098018	86
0	271	133.715796762452	87
0	273	135.267613017539	88
0	275	136.301238111293	89
0	277	138.270199877283	90
0	279	139.59119712103	91
0	285	140.812459803725	92
0	291	142.796502039142	93
0	293	144.244428212827	94
0	307	145.343997297648	95
0	309	146.510844815595	96
0	315	148.289895833775	97
0	317	149.429868416933	98
0	319	150.463090803314	99
0	321	152.445665760038	100
0	323	153.818956512797	101
0	325	155.239031880468	102
0	343	156.289619993258	103
0	345	157.628605109712	104
0	347	158.80809537771	105
0	361	159.97908197048	106
0	363	161.479108264277	107
0	365	162.52947832302	108
0	367	164.228576400623	109
0	373	166.220972796276	110
0	375	168.085254238758	111
0	377	169.836098485699	112
0	379	171.800588251397	113
0	381	173.354830687473	114
0	383	174.567221189456	115
0	385	175.789664412921	116
0	391	177.008413780786	117
0	393	178.97865046568	118
0	395	180.659195159867	119
0	397	181.744490726923	120
0	399	182.800909061523	121
0	401	184.288746767517	122
0	403	186.16975132616	123
0	405	188.146155716458	124
0	407	189.76381363564	125
0	409	191.306312412562	126
0	411	193.160925995631	127
0	413	194.904760537974	128
0	415	196.383356864403	129
0	417	198.060438440719	130
0	423	199.667483501674	131
0	425	201.123498125074	132
0	427	203.029916213898	133
0	429	204.167136634773	134
0	447	205.396355957797	135
0	449	207.281693622077	136
0	455	208.961573076973	137
0	469	210.750312498378	138
0	471	211.904006801851	139
0	473	213.634448982382	140
0	475	215.280713417407	141
0	477	216.495594153952	142
0	479	217.682052372562	143
0	485	219.489632637546	144
0	487	220.766526389707	145
0	489	221.941435261935	146
0	491	223.645909523664	147
0	493	225.10905972014	148
0	495	226.949488255501	149
0	497	228.154354017068	150
0	499	229.319312888503	151
0	501	230.444145949397	152
0	507	232.166226610148	153
0	513	233.258822768766	154
0	515	234.990516527162	155
0	521	236.036131163199	156
0	523	237.713394469886	157
0	525	238.77643276246	158
1	15	10.275111534334	0
1	15	10.275111534334	1
1	15	10.275111534334	2
1	21	11.588784404901	3
1	21	11.588784404901	4
1	21	11.588784404901	5
1	27	13.067811097196	6
1	27	13.067811097196	7
1	27	13.067811097196	8
1	35	16.12218577356	9
1	35	16.12218577356	10
1	35	16.12218577356	11
1	55	22.454671234926	12
1	55	22.454671234926	13
1	55	22.454671234926	14
1	63	25.464784140933	15
1	63	25.464784140933	16
1	63	25.464784140933	17
1	77	31.492408144065	18
1	77	31.492408144065	19
1	77	31.492408144065	20
1	105	49.376230162179	21
1	105	49.376230162179	22
1	105	49.376230162179	23
1	133	68.761374586365	24
1	133	68.761374586365	25
1	133	68.761374586365	26
1	179	93.189977186899	27
1	179	93.189977186899	28
1	179	93.189977186899	29
1	197	103.820728318358	30
1	197	103.820728318358	31
1	197	103.820728318358	32
1	207	108.260086196692	33
1	207	108.260086196692	34
1	207	108.260086196692	35
1	229	112.642963646429	36
1	229	112.642963646429	37
1	229	112.642963646429	38
1	245	116.066969110653	39
1	245	116.066969110653	40
1	245	116.066969110653	41
1	281	139.602720057283	42
1	281	139.602720057283	43
1	281	139.602720057283	44
1	287	140.825475462857	45
1	287	140.825475462857	46
1	287	140.825475462857	47
1	295	144.258771669386	48
1	295	144.258771669386	49
1	295	144.258771669386	50
1	311	146.54086468055	51
1	311	146.54086468055	52
1	311	146.54086468055	53
1	327	155.253580998916	54
1	327	155.253580998916	55
1	327	155.253580998916	56
1	349	158.82432135115	57
1	349	158.82432135115	58
1	349	158.82432135115	59
1	369	164.241686078673	60
1	369	164.241686078673	61
1	369	164.241686078673	62
1	387	175.808094200675	63
1	387	175.808094200675	64
1	387	175.808094200675	65
1	419	198.08298047342	66
1	419	198.08298047342	67
1	419	198.08298047342	68
1	431	204.198472267648	69
1	431	204.198472267648	70
1	431	204.198472267648	71
1	451	207.297784068204	72
1	451	207.297784068204	73
1	451	207.297784068204	74
1	457	208.974179478267	75
1	457	208.974179478267	76
1	457	208.974179478267	77
1	481	217.7057991721	78
1	481	217.7057991721	79
1	481	217.7057991721	80
1	503	230.454455212313	81
1	503	230.454455212313	82
1	503	230.454455212313	83
1	509	232.178678591074	84
1	509	232.178678591074	85
1	509	232.178678591074	86
1	517	235.002863085655	87
1	517	235.002863085655	88
1	517	235.002863085655	89
1	527	238.786525592704	90
1	527	238.786525592704	91
1	527	238.786525592704	92
2	39	16.152594695719	0
2	39	16.152594695719	1
2	39	16.152594695719	2
2	137	68.782572730023	3
2	137	68.782572730023	4
2	137	68.782572730023	5
2	219	108.337685151055	6
2	219	108.337685151055	7
2	219	108.337685151055	8
2	233	112.65583775119	9
2	233	112.65583775119	10
2	233	112.65583775119	11
2	299	144.287168997237	12
2	299	144.287168997237	13
2	299	144.287168997237	14
2	331	155.266204292008	15
2	331	155.266204292008	16
2	331	155.266204292008	17
2	357	158.860643539775	18
2	357	158.860643539775	19
2	357	158.860643539775	20
2	439	204.230642328255	21
2	439	204.230642328255	22
2	439	204.230642328255	23
2	531	238.799834691516	24
2	531	238.799834691516	25
2	531	238.799834691516	26
3	43	16.178734716468	0
3	43	16.178734716468	1
3	43	16.178734716468	2
3	141	68.798896095987	3
3	141	68.798896095987	4
3	141	68.798896095987	5
3	215	108.297162334486	6
3	215	108.297162334486	7
3	215	108.297162334486	8
3	237	112.699481455721	9
3	237	112.699481455721	10
3	237	112.699481455721	11
3	336	155.289297275648	12
3	336	155.289297275648	13
3	336	155.289297275648	14
3	443	204.244379961193	15
3	443	204.244379961193	16
3	443	204.244379961193	17
3	465	209.004411269504	18
3	465	209.004411269504	19
3	465	209.004411269504	20
4	46	16.188734716468	0
4	446	204.254379961193	1
5	145	68.830063044619	0
5	145	68.830063044619	1
5	145	68.830063044619	2
5	211	108.27867012637	3
5	211	108.27867012637	4
5	211	108.27867012637	5
5	303	144.317428085408	6
5	303	144.317428085408	7
5	303	144.317428085408	8
5	335	155.280666820213	9
5	335	155.280666820213	10
5	335	155.280666820213	11
5	353	158.838557922164	12
5	353	158.838557922164	13
5	353	158.838557922164	14
5	435	204.213308651523	15
5	435	204.213308651523	16
5	435	204.213308651523	17
5	461	208.987108992852	18
5	461	208.987108992852	19
5	461	208.987108992852	20
5	535	238.811903879849	21
5	535	238.811903879849	22
5	535	238.811903879849	23

