version 2
run General-1-20231008-06:29:29-15849
attr configname General
attr datetime 20231008-06:29:29
attr experiment General
attr inifile omnetpp.ini
attr iterationvars ""
attr iterationvarsf ""
attr measurement ""
attr network Network1
attr processid 15849
attr repetition 1
attr replication #1
attr resultdir results
attr runnumber 1
attr seedset 1
param Network1.node[*].transmissionTime "uniform(1s, 2s)"
param Network1.node[*].delayTime "uniform(0.01s, 0.2s)"
param Network1.node[*].processingTime exponential(0.01s)
param Network1.node[*].lossProbability 0.75
param Reliability.node[*].transmissionTime "uniform(1s, 2s)"
param Reliability.node[*].delayTime "uniform(0.01s, 0.2s)"
param Reliability.node[*].processingTime exponential(0.01s)
param Reliability.node[*].lossProbability 0.0

vector 0 Network1.node[0] txVector ETV
vector 1 Network1.node[1] txVector ETV
vector 2 Network1.node[2] txVector ETV
vector 3 Network1.node[3] txVector ETV
vector 4 Network1.node[4] txVector ETV
vector 5 Network1.node[5] rxVector ETV
0	1	0.089234179703	0
0	3	2.086418987836	1
0	5	4.018976349036	2
0	7	5.147100796808	3
0	9	7.146141312203	4
0	11	8.382230288467	5
0	13	9.778811014608	6
0	15	11.166721754825	7
0	17	12.836467795192	8
0	19	14.772006867804	9
0	21	16.618317786023	10
0	23	17.931591299014	11
0	25	19.45613946172	12
0	31	20.899592355476	13
0	33	22.813554377877	14
0	35	24.270759187057	15
0	37	25.701457757154	16
0	39	27.640585552087	17
0	53	29.41897478758	18
0	55	31.248578152271	19
0	57	32.521628129646	20
0	63	33.580871326733	21
0	69	35.252525418415	22
0	71	36.542155062198	23
0	73	37.684275195119	24
0	83	39.467589667649	25
0	85	40.766084966133	26
0	91	42.212219466804	27
0	101	43.681457991595	28
0	103	44.765080996905	29
0	105	46.681942331255	30
0	107	48.59239071107	31
0	109	49.891320821946	32
0	111	51.475709945779	33
0	113	53.041621974321	34
0	115	54.655560292654	35
0	117	56.612095951453	36
0	119	57.87307493284	37
0	121	59.10409035429	38
0	123	60.637538847165	39
0	125	62.587476980757	40
0	127	64.080536574243	41
0	129	65.621137082694	42
0	131	67.386622189894	43
0	133	68.43196791492	44
0	135	69.571934035165	45
0	145	71.364337614389	46
0	151	73.256473482936	47
0	165	74.908772361116	48
0	167	76.262711452903	49
0	169	78.025944510126	50
0	179	79.382476227009	51
0	181	80.45626823802	52
0	187	82.243219711934	53
0	189	84.185056659742	54
0	191	85.564859949867	55
0	197	87.327780017047	56
0	199	89.100519160391	57
0	201	90.25344898284	58
0	203	91.832082914771	59
0	213	92.841090910254	60
0	223	94.110091959942	61
0	229	95.852856787039	62
0	239	97.08321959118	63
0	241	98.255497948151	64
0	243	99.6518112364	65
0	245	100.759176544729	66
0	247	102.268986822921	67
0	253	103.371122055338	68
0	259	105.338789980975	69
0	261	106.430346421315	70
0	267	108.000413079164	71
0	281	109.813408050803	72
0	283	111.241790460307	73
0	285	112.603694909835	74
0	287	113.757033393835	75
0	289	115.694223719766	76
0	291	117.610633592937	77
0	293	119.392592055607	78
0	295	121.008920998429	79
0	297	122.044920434128	80
0	299	123.699244205724	81
0	301	124.829013818526	82
0	307	126.123373290408	83
0	309	127.197342288332	84
0	311	128.349479445606	85
0	313	129.511097975192	86
0	315	131.449809673126	87
0	321	132.820943568484	88
0	323	134.119623811334	89
0	325	135.323981935508	90
0	335	137.305738570518	91
0	337	139.119614932337	92
0	339	140.882188069984	93
0	341	142.337470539963	94
0	347	143.869296986262	95
0	349	145.378085724895	96
0	351	146.593736000245	97
0	353	148.51017970301	98
0	355	149.97233221785	99
0	357	151.104599492511	100
0	359	152.868841105027	101
0	361	154.081574799845	102
0	363	155.155833233966	103
0	369	156.251252478341	104
0	383	157.34656028997	105
0	385	159.074571930224	106
0	395	160.597308555039	107
0	397	162.325865951719	108
0	407	164.082201341985	109
0	409	166.008552053131	110
0	411	167.303063599745	111
0	413	168.470015192291	112
0	415	169.494116817488	113
0	421	170.946118424068	114
0	427	172.555325412311	115
0	429	173.633845381791	116
0	431	175.327030579912	117
0	433	176.339743246211	118
0	439	177.799288526995	119
0	441	179.27137195261	120
0	443	180.376763202835	121
0	445	181.879839112636	122
0	459	183.765528973544	123
0	461	185.731255778464	124
0	463	187.161223675011	125
0	469	188.507512186308	126
0	471	190.45755549346	127
0	473	191.771166323804	128
0	475	193.723997448225	129
0	477	194.942390683227	130
0	487	196.191090883109	131
0	493	197.382351153185	132
0	495	198.398224132954	133
0	497	199.447935148029	134
0	511	200.847350439409	135
0	513	202.05684332026	136
0	515	203.474226113761	137
0	517	204.821916130258	138
0	519	206.521800160527	139
0	533	208.219309656301	140
0	535	209.686686961099	141
0	537	211.046503155145	142
0	539	212.286720787759	143
0	541	213.309889518076	144
0	543	214.841557624636	145
0	545	215.971752342654	146
0	547	217.533211301433	147
0	553	218.701042100208	148
0	555	219.974942425152	149
0	557	220.984942152517	150
0	571	222.204808450656	151
0	573	223.745527989583	152
0	579	225.605411558997	153
0	581	226.649683856292	154
0	587	228.093491839597	155
0	589	229.905263353258	156
0	591	231.54155396682	157
0	593	233.314404397623	158
0	595	235.020086540494	159
0	605	236.258297455616	160
0	607	237.918629352122	161
0	609	239.10600793164	162
1	27	19.468747620219	0
1	27	19.468747620219	1
1	27	19.468747620219	2
1	41	27.663172324199	3
1	41	27.663172324199	4
1	41	27.663172324199	5
1	59	32.542730769955	6
1	59	32.542730769955	7
1	59	32.542730769955	8
1	65	33.596178003194	9
1	65	33.596178003194	10
1	65	33.596178003194	11
1	75	37.699594646664	12
1	75	37.699594646664	13
1	75	37.699594646664	14
1	87	40.778596854688	15
1	87	40.778596854688	16
1	87	40.778596854688	17
1	93	42.223230631691	18
1	93	42.223230631691	19
1	93	42.223230631691	20
1	137	69.582236579615	21
1	137	69.582236579615	22
1	137	69.582236579615	23
1	147	71.37907908593	24
1	147	71.37907908593	25
1	147	71.37907908593	26
1	153	73.27095607689	27
1	153	73.27095607689	28
1	153	73.27095607689	29
1	171	78.049919614402	30
1	171	78.049919614402	31
1	171	78.049919614402	32
1	183	80.466930355376	33
1	183	80.466930355376	34
1	183	80.466930355376	35
1	193	85.589626298766	36
1	193	85.589626298766	37
1	193	85.589626298766	38
1	205	91.854428696245	39
1	205	91.854428696245	40
1	205	91.854428696245	41
1	215	92.868910541723	42
1	215	92.868910541723	43
1	215	92.868910541723	44
1	225	94.122223348548	45
1	225	94.122223348548	46
1	225	94.122223348548	47
1	231	95.869954585181	48
1	231	95.869954585181	49
1	231	95.869954585181	50
1	249	102.282393683602	51
1	249	102.282393683602	52
1	249	102.282393683602	53
1	255	103.384383773817	54
1	255	103.384383773817	55
1	255	103.384383773817	56
1	263	106.445758007478	57
1	263	106.445758007478	58
1	263	106.445758007478	59
1	269	108.013834602567	60
1	269	108.013834602567	61
1	269	108.013834602567	62
1	303	124.843489428207	63
1	303	124.843489428207	64
1	303	124.843489428207	65
1	317	131.460322796435	66
1	317	131.460322796435	67
1	317	131.460322796435	68
1	327	135.356333182554	69
1	327	135.356333182554	70
1	327	135.356333182554	71
1	343	142.348628420949	72
1	343	142.348628420949	73
1	343	142.348628420949	74
1	365	155.167603058453	75
1	365	155.167603058453	76
1	365	155.167603058453	77
1	371	156.26279872134	78
1	371	156.26279872134	79
1	371	156.26279872134	80
1	387	159.097920776527	81
1	387	159.097920776527	82
1	387	159.097920776527	83
1	399	162.340934474946	84
1	399	162.340934474946	85
1	399	162.340934474946	86
1	417	169.520637075061	87
1	417	169.520637075061	88
1	417	169.520637075061	89
1	423	170.956473117982	90
1	423	170.956473117982	91
1	423	170.956473117982	92
1	435	176.382266863235	93
1	435	176.382266863235	94
1	435	176.382266863235	95
1	447	181.89748290972	96
1	447	181.89748290972	97
1	447	181.89748290972	98
1	465	187.179829105025	99
1	465	187.179829105025	100
1	465	187.179829105025	101
1	479	194.972327124201	102
1	479	194.972327124201	103
1	479	194.972327124201	104
1	489	196.209978610013	105
1	489	196.209978610013	106
1	489	196.209978610013	107
1	499	199.46653670893	108
1	499	199.46653670893	109
1	499	199.46653670893	110
1	521	206.532576791445	111
1	521	206.532576791445	112
1	521	206.532576791445	113
1	549	217.548677120664	114
1	549	217.548677120664	115
1	549	217.548677120664	116
1	559	220.995266932162	117
1	559	220.995266932162	118
1	559	220.995266932162	119
1	575	223.757575063826	120
1	575	223.757575063826	121
1	575	223.757575063826	122
1	583	226.659878934265	123
1	583	226.659878934265	124
1	583	226.659878934265	125
1	597	235.030540886887	126
1	597	235.030540886887	127
1	597	235.030540886887	128
2	45	27.676932710423	0
2	45	27.676932710423	1
2	45	27.676932710423	2
2	97	42.23662425057	3
2	97	42.23662425057	4
2	97	42.23662425057	5
2	141	69.615608543016	6
2	141	69.615608543016	7
2	141	69.615608543016	8
2	175	78.093398090445	9
2	175	78.093398090445	10
2	175	78.093398090445	11
2	331	135.366520691584	12
2	331	135.366520691584	13
2	331	135.366520691584	14
2	375	156.283000269509	15
2	375	156.283000269509	16
2	375	156.283000269509	17
2	403	162.359068504423	18
2	403	162.359068504423	19
2	403	162.359068504423	20
2	455	181.942967294252	21
2	455	181.942967294252	22
2	455	181.942967294252	23
2	507	199.514155144021	24
2	507	199.514155144021	25
2	507	199.514155144021	26
2	529	206.588141049367	27
2	529	206.588141049367	28
2	529	206.588141049367	29
2	567	221.028684553106	30
2	567	221.028684553106	31
2	567	221.028684553106	32
3	49	27.706959015194	0
3	49	27.706959015194	1
3	49	27.706959015194	2
3	79	37.71937710548	3
3	79	37.71937710548	4
3	79	37.71937710548	5
3	157	73.291112671417	6
3	157	73.291112671417	7
3	157	73.291112671417	8
3	209	91.878893071479	9
3	209	91.878893071479	10
3	209	91.878893071479	11
3	219	92.879637124977	12
3	219	92.879637124977	13
3	219	92.879637124977	14
3	235	95.880460197076	15
3	235	95.880460197076	16
3	235	95.880460197076	17
3	273	108.033326567181	18
3	273	108.033326567181	19
3	273	108.033326567181	20
3	391	159.119538160168	21
3	391	159.119538160168	22
3	391	159.119538160168	23
3	451	181.911861522444	24
3	451	181.911861522444	25
3	451	181.911861522444	26
3	483	194.999206528705	27
3	483	194.999206528705	28
3	483	194.999206528705	29
3	503	199.481262062312	30
3	503	199.481262062312	31
3	503	199.481262062312	32
3	525	206.558154730704	33
3	525	206.558154730704	34
3	525	206.558154730704	35
3	563	221.016135345002	36
3	563	221.016135345002	37
3	563	221.016135345002	38
3	601	235.060572333823	39
3	601	235.060572333823	40
3	601	235.060572333823	41
4	161	73.312831103076	0
4	161	73.312831103076	1
4	161	73.312831103076	2
4	277	108.057264711616	3
4	277	108.057264711616	4
4	277	108.057264711616	5
4	379	156.3188773696	6
4	379	156.3188773696	7
4	379	156.3188773696	8
5	164	73.322831103076	0

