version 2
run General-3-20231008-06:29:29-15849
attr configname General
attr datetime 20231008-06:29:29
attr experiment General
attr inifile omnetpp.ini
attr iterationvars ""
attr iterationvarsf ""
attr measurement ""
attr network Network1
attr processid 15849
attr repetition 3
attr replication #3
attr resultdir results
attr runnumber 3
attr seedset 3
param Network1.node[*].transmissionTime "uniform(1s, 2s)"
param Network1.node[*].delayTime "uniform(0.01s, 0.2s)"
param Network1.node[*].processingTime exponential(0.01s)
param Network1.node[*].lossProbability 0.75
param Reliability.node[*].transmissionTime "uniform(1s, 2s)"
param Reliability.node[*].delayTime "uniform(0.01s, 0.2s)"
param Reliability.node[*].processingTime exponential(0.01s)
param Reliability.node[*].lossProbability 0.0

vector 0 Network1.node[0] txVector ETV
vector 1 Network1.node[1] txVector ETV
vector 2 Network1.node[3] txVector ETV
vector 3 Network1.node[2] txVector ETV
vector 4 Network1.node[4] txVector ETV
vector 5 Network1.node[5] rxVector ETV
0	1	0.114651601831	0
0	3	1.185376482154	1
0	5	3.025325524457	2
0	7	4.146654103719	3
0	13	5.71596542939	4
0	15	6.756596166942	5
0	17	8.004484468674	6
0	19	9.098035964252	7
0	21	10.792859621414	8
0	23	11.938229768838	9
0	25	13.391402068383	10
0	27	14.606979080777	11
0	29	15.960884153678	12
0	31	17.453520074787	13
0	33	19.366821527549	14
0	35	21.132647902074	15
0	37	23.106296173132	16
0	39	24.508656815461	17
0	41	26.061428763972	18
0	43	27.367789391031	19
0	45	28.95440936305	20
0	47	30.229329470614	21
0	49	31.683937235571	22
0	55	33.441602481132	23
0	57	35.334667587489	24
0	63	37.053089612698	25
0	69	38.378395789837	26
0	71	39.803097399719	27
0	73	41.216816083364	28
0	75	43.003954583848	29
0	77	44.717520331567	30
0	79	45.740637900144	31
0	81	47.056405148538	32
0	83	48.61917524489	33
0	85	50.367332681617	34
0	87	51.976956345676	35
0	89	53.180310874548	36
0	107	54.833941727014	37
0	109	56.526575474137	38
0	111	57.972475914819	39
0	113	59.334816373488	40
0	115	60.850910992896	41
0	117	62.308243168121	42
0	119	64.116605401108	43
0	121	65.432889934698	44
0	123	67.276677029975	45
0	125	68.76596828557	46
0	127	70.306087886984	47
0	129	72.13221596165	48
0	131	73.653820298448	49
0	133	74.796419644797	50
0	135	76.098683258354	51
0	141	77.905705933295	52
0	143	79.388151735835	53
0	145	80.414178002462	54
0	147	81.919752060272	55
0	149	83.837782082683	56
0	151	85.044748218334	57
0	153	86.970481002773	58
0	155	88.2478040518	59
0	157	89.423866167035	60
0	159	91.414167355582	61
0	161	93.106817971984	62
0	163	94.858958002016	63
0	165	95.975174592411	64
0	171	97.061175307793	65
0	173	98.422825925353	66
0	175	99.948936924872	67
0	181	101.373666875598	68
0	183	103.254777615725	69
0	197	105.055381126537	70
0	199	106.600763743346	71
0	201	108.428785860374	72
0	203	109.662477869609	73
0	213	110.865355517784	74
0	215	112.367885734023	75
0	221	113.540248633431	76
0	223	115.427146760815	77
0	225	116.930402051027	78
0	227	118.502639670924	79
0	229	119.845059257767	80
0	235	121.454704972518	81
0	237	123.454680436359	82
0	239	124.722628191182	83
0	241	125.979834569221	84
0	243	127.25647611597	85
0	245	128.508217626553	86
0	247	130.405954655794	87
0	249	132.241200966363	88
0	251	133.387517188744	89
0	257	135.382960363592	90
0	259	136.874775911749	91
0	261	138.004434295765	92
0	275	139.864487758673	93
0	277	141.571919265271	94
0	279	142.911925190429	95
0	293	144.608675178208	96
0	295	146.528535593834	97
0	297	147.62341692771	98
0	299	149.029315911766	99
0	301	150.567779603481	100
0	303	152.217352862071	101
0	317	153.527314496759	102
0	319	154.686961655106	103
0	325	156.506503738762	104
0	327	157.792807867118	105
0	329	159.506412411175	106
0	335	160.744848708921	107
0	337	162.6733475554	108
0	343	164.036423835038	109
0	345	165.638914366086	110
0	347	166.87037539675	111
0	349	168.3139630757	112
0	351	169.957038054541	113
0	369	171.739422033606	114
0	375	173.149513368327	115
0	377	174.371889687907	116
0	379	175.728635376385	117
0	381	177.51139290684	118
0	383	178.960794100138	119
0	401	180.437725864417	120
0	403	181.721415314191	121
0	405	182.934309649813	122
0	407	184.354576145598	123
0	409	185.480397185377	124
0	411	187.473320742437	125
0	413	188.906855033777	126
0	415	190.523560320559	127
0	417	192.502637575447	128
0	419	193.795992089269	129
0	421	195.250303870133	130
0	423	196.648440781348	131
0	425	198.437029917557	132
0	431	200.054484099681	133
0	433	201.085413296074	134
0	435	202.317511685491	135
0	437	203.330267176796	136
0	439	204.604904646352	137
0	441	206.546819009883	138
0	443	207.823586926162	139
0	445	208.899375130953	140
0	451	210.173727296823	141
0	453	211.903886835155	142
0	455	213.519076291303	143
0	457	214.699816620274	144
0	459	216.443646031496	145
0	461	217.809127703606	146
0	463	219.585889737884	147
0	465	221.379212416074	148
0	471	223.013515885751	149
0	477	224.668649796694	150
0	479	225.847188630672	151
0	481	227.616322322115	152
0	483	228.641347604636	153
0	485	229.707217488503	154
0	487	231.03348149389	155
0	489	232.617411586521	156
0	491	233.717989299279	157
0	493	235.219912642679	158
0	495	237.020908876621	159
0	497	238.091278635963	160
0	503	239.930182043529	161
1	9	4.162399960467	0
1	9	4.162399960467	1
1	9	4.162399960467	2
1	51	31.710951162851	3
1	51	31.710951162851	4
1	51	31.710951162851	5
1	59	35.344875886958	6
1	59	35.344875886958	7
1	59	35.344875886958	8
1	65	37.079640725066	9
1	65	37.079640725066	10
1	65	37.079640725066	11
1	91	53.201178292751	12
1	91	53.201178292751	13
1	91	53.201178292751	14
1	137	76.112532459964	15
1	137	76.112532459964	16
1	137	76.112532459964	17
1	167	95.996129502289	18
1	167	95.996129502289	19
1	167	95.996129502289	20
1	177	99.976072734832	21
1	177	99.976072734832	22
1	177	99.976072734832	23
1	185	103.269084294519	24
1	185	103.269084294519	25
1	185	103.269084294519	26
1	205	109.704259104007	27
1	205	109.704259104007	28
1	205	109.704259104007	29
1	217	112.381429750091	30
1	217	112.381429750091	31
1	217	112.381429750091	32
1	231	119.856344609485	33
1	231	119.856344609485	34
1	231	119.856344609485	35
1	253	133.401913548499	36
1	253	133.401913548499	37
1	253	133.401913548499	38
1	263	138.016898390703	39
1	263	138.016898390703	40
1	263	138.016898390703	41
1	281	142.935724644798	42
1	281	142.935724644798	43
1	281	142.935724644798	44
1	305	152.245763647423	45
1	305	152.245763647423	46
1	305	152.245763647423	47
1	321	154.700564158264	48
1	321	154.700564158264	49
1	321	154.700564158264	50
1	331	159.528374629198	51
1	331	159.528374629198	52
1	331	159.528374629198	53
1	339	162.699444801292	54
1	339	162.699444801292	55
1	339	162.699444801292	56
1	353	169.982825312079	57
1	353	169.982825312079	58
1	353	169.982825312079	59
1	371	171.750920691658	60
1	371	171.750920691658	61
1	371	171.750920691658	62
1	385	178.978056709575	63
1	385	178.978056709575	64
1	385	178.978056709575	65
1	427	198.45598318782	66
1	427	198.45598318782	67
1	427	198.45598318782	68
1	447	208.952080950069	69
1	447	208.952080950069	70
1	447	208.952080950069	71
1	467	221.403510329696	72
1	467	221.403510329696	73
1	467	221.403510329696	74
1	473	223.023520675053	75
1	473	223.023520675053	76
1	473	223.023520675053	77
1	499	238.112999378388	78
1	499	238.112999378388	79
1	499	238.112999378388	80
2	95	53.21443528265	0
2	95	53.21443528265	1
2	95	53.21443528265	2
2	193	103.303615498258	3
2	193	103.303615498258	4
2	193	103.303615498258	5
2	267	138.028762090594	6
2	267	138.028762090594	7
2	267	138.028762090594	8
2	285	142.947444797226	9
2	285	142.947444797226	10
2	285	142.947444797226	11
2	309	152.26792881562	12
2	309	152.26792881562	13
2	309	152.26792881562	14
2	357	169.998066396562	15
2	357	169.998066396562	16
2	357	169.998066396562	17
2	389	178.991100616419	18
2	389	178.991100616419	19
2	389	178.991100616419	20
3	96	53.214511893643	0
3	96	53.214511893643	1
3	96	53.214511893643	2
3	189	103.289881981098	3
3	189	103.289881981098	4
3	189	103.289881981098	5
3	209	109.733295275945	6
3	209	109.733295275945	7
3	209	109.733295275945	8
3	271	138.045066851621	9
3	271	138.045066851621	10
3	271	138.045066851621	11
3	289	142.959237098983	12
3	289	142.959237098983	13
3	289	142.959237098983	14
3	365	170.043104085015	15
3	365	170.043104085015	16
3	365	170.043104085015	17
3	394	179.007619046005	18
3	394	179.007619046005	19
3	394	179.007619046005	20
4	103	53.226760577952	0
4	103	53.226760577952	1
4	103	53.226760577952	2
4	313	152.287694628204	3
4	313	152.287694628204	4
4	313	152.287694628204	5
4	361	170.013846788436	6
4	361	170.013846788436	7
4	361	170.013846788436	8
4	393	179.001743649682	9
4	393	179.001743649682	10
4	393	179.001743649682	11
5	364	170.023846788436	0
5	397	179.011743649682	1

