version 2
run General-0-20230912-22:50:24-10028
attr configname General
attr datetime 20230912-22:50:24
attr experiment General
attr inifile omnetpp.ini
attr iterationvars ""
attr iterationvarsf ""
attr measurement ""
attr network Tictoc1
attr processid 10028
attr repetition 0
attr replication #0
attr resultdir results
attr runnumber 0
attr seedset 0
param Tictoc1.tic.delayTime exponential(1s)
param Tictoc1.toc.delayTime exponential(0.1s)
param Tictoc1.*.lossProbability 0.1

vector 0 Tictoc1.tic transmissionSignal:vector ETV
attr source transmissionSignal
attr title "tx_t, vector"
vector 1 Tictoc1.toc receptionSignal:vector ETV
attr source receptionSignal
attr title "rx_t, vector"
vector 2 Tictoc1.toc transmissionSignal:vector ETV
attr source transmissionSignal
attr title "tx_t, vector"
vector 3 Tictoc1.tic receptionSignal:vector ETV
attr source receptionSignal
attr title "rx_t, vector"
0	1	0.795874504566	0
0	5	2.981071792446	1
0	9	4.163427466016	2
0	13	5.395538741076	3
0	17	6.219570754331	4
0	21	6.700307865628	5
0	25	7.41574558466	6
0	29	9.444846396747	7
0	33	10.549667506369	8
0	37	12.817862179229	9
0	39	14.817862179229	9
0	43	16.071590790149	10
0	45	18.071590790149	10
0	49	21.600509485169	11
0	53	23.855946828477	12
0	57	25.082178188069	13
0	61	26.062507855185	14
0	65	27.550100394294	15
0	69	28.899055038865	16
0	73	29.885362665382	17
0	77	30.965326425147	18
0	81	31.860577699201	19
0	85	33.569452853156	20
0	89	34.074409586211	21
0	93	34.307905958141	22
0	97	34.766180541494	23
0	101	35.950872712069	24
0	105	38.767577588411	25
0	109	39.472870691144	26
0	113	42.056674993512	27
0	117	42.329246406556	28
0	121	43.697971784799	29
0	125	44.152921097484	30
0	129	45.755766656118	31
0	133	46.50147487232	32
0	137	46.825100808086	33
0	141	51.580184754779	34
0	145	52.848774678947	35
0	149	53.325490148915	36
0	153	54.50328027405	37
0	157	55.384728322749	38
0	161	56.589620097668	39
0	165	56.947825630452	40
0	169	57.636188693541	41
0	173	58.205732823375	42
0	177	59.538003600027	43
0	181	59.841514939395	44
0	185	61.343311197077	45
0	187	63.343311197077	45
0	191	66.023535643827	46
0	195	70.056721287664	47
0	197	72.056721287664	47
0	201	73.66096124848	48
0	203	75.66096124848	48
0	205	77.66096124848	48
0	209	81.785772395421	49
0	213	82.381490430994	50
0	217	83.761002821186	51
0	221	84.708310916643	52
0	225	85.159336104873	53
0	229	86.27871798845	54
0	233	87.220807409677	55
0	237	87.768015953793	56
0	241	88.14057600024	57
0	245	88.756670255892	58
0	247	90.756670255892	58
0	251	91.282733734553	59
0	255	93.450009587051	60
0	259	93.883111797994	61
0	263	94.976222101991	62
0	265	96.976222101991	62
0	269	97.814527105276	63
0	271	99.814527105276	63
1	2	0.895874504566	1
1	6	3.081071792446	2
1	10	4.263427466016	3
1	14	5.495538741076	4
1	18	6.319570754331	5
1	22	6.800307865628	6
1	26	7.51574558466	7
1	30	9.544846396747	8
1	34	10.649667506369	9
1	40	14.917862179229	10
1	46	18.171590790149	11
1	50	21.700509485169	12
1	54	23.955946828477	13
1	58	25.182178188069	14
1	62	26.162507855185	15
1	66	27.650100394294	16
1	70	28.999055038865	17
1	74	29.985362665382	18
1	78	31.065326425147	19
1	82	31.960577699201	20
1	86	33.669452853156	21
1	90	34.174409586211	22
1	94	34.407905958141	23
1	98	34.866180541494	24
1	102	36.050872712069	25
1	106	38.867577588411	26
1	110	39.572870691144	27
1	114	42.156674993512	28
1	118	42.429246406556	29
1	122	43.797971784799	30
1	126	44.252921097484	31
1	130	45.855766656118	32
1	134	46.60147487232	33
1	138	46.925100808086	34
1	142	51.680184754779	35
1	146	52.948774678947	36
1	150	53.425490148915	37
1	154	54.60328027405	38
1	158	55.484728322749	39
1	162	56.689620097668	40
1	166	57.047825630452	41
1	170	57.736188693541	42
1	174	58.305732823375	43
1	178	59.638003600027	44
1	182	59.941514939395	45
1	188	63.443311197077	46
1	192	66.123535643827	47
1	198	72.156721287664	48
1	206	77.76096124848	49
1	210	81.885772395421	50
1	214	82.481490430994	51
1	218	83.861002821186	52
1	222	84.808310916643	53
1	226	85.259336104873	54
1	230	86.37871798845	55
1	234	87.320807409677	56
1	238	87.868015953793	57
1	242	88.24057600024	58
1	248	90.856670255892	59
1	252	91.382733734553	60
1	256	93.550009587051	61
1	260	93.983111797994	62
1	266	97.076222101991	63
1	272	99.914527105276	64
2	3	1.021467580371	0
2	7	3.276226326034	0
2	11	4.318532314683	0
2	15	5.544051557448	0
2	19	6.541923196535	0
2	23	6.832143479712	0
2	27	7.672635196422	0
2	31	9.610234653469	0
2	35	10.909492914954	0
2	41	14.926978281841	0
2	47	18.350339556493	0
2	51	21.715632570535	0
2	55	24.340469015391	0
2	59	25.343578395558	0
2	63	26.314161452584	0
2	67	27.777623164516	0
2	71	29.014528006915	0
2	75	30.127499133391	0
2	79	31.11888299717	0
2	83	31.981198027404	0
2	87	33.730361095474	0
2	91	34.18893738894	0
2	95	34.504044052048	0
2	99	34.891324734701	0
2	103	36.338664214197	0
2	107	38.927352196093	0
2	111	39.630323931818	0
2	115	42.16713111609	0
2	119	42.539137653311	0
2	123	43.816714391401	0
2	127	44.266723966327	0
2	131	45.949372812095	0
2	135	46.685917651673	0
2	139	47.025687908603	0
2	143	51.690948265595	0
2	147	53.049576603489	0
2	151	53.531364420424	0
2	155	54.656786741758	0
2	159	55.512756023597	0
2	163	56.73087022066	0
2	167	57.154632850167	0
2	171	57.886852226868	0
2	175	58.351734219149	0
2	179	59.63937005787	0
2	183	60.123496831323	0
2	189	63.818214343035	0
2	193	66.19479400316	0
2	199	72.216715976328	0
2	207	77.794202272576	0
2	211	81.930314341613	0
2	215	82.494129294637	0
2	219	84.073426540886	0
2	223	84.814940656791	0
2	227	85.34262045648	0
2	231	86.40955947246	0
2	235	87.569365645375	0
2	239	87.9538055179	0
2	243	88.273110041793	0
2	249	91.041403020992	0
2	253	91.508727115564	0
2	257	93.580761359427	0
2	261	94.07142470219	0
2	267	97.252796209232	0
3	4	1.121467580371	1
3	8	3.376226326034	2
3	12	4.418532314683	3
3	16	5.644051557448	4
3	20	6.641923196535	5
3	24	6.932143479712	6
3	28	7.772635196422	7
3	32	9.710234653469	8
3	36	11.009492914954	9
3	42	15.026978281841	10
3	48	18.450339556493	11
3	52	21.815632570535	12
3	56	24.440469015391	13
3	60	25.443578395558	14
3	64	26.414161452584	15
3	68	27.877623164516	16
3	72	29.114528006915	17
3	76	30.227499133391	18
3	80	31.21888299717	19
3	84	32.081198027404	20
3	88	33.830361095474	21
3	92	34.28893738894	22
3	96	34.604044052048	23
3	100	34.991324734701	24
3	104	36.438664214197	25
3	108	39.027352196093	26
3	112	39.730323931818	27
3	116	42.26713111609	28
3	120	42.639137653311	29
3	124	43.916714391401	30
3	128	44.366723966327	31
3	132	46.049372812095	32
3	136	46.785917651673	33
3	140	47.125687908603	34
3	144	51.790948265595	35
3	148	53.149576603489	36
3	152	53.631364420424	37
3	156	54.756786741758	38
3	160	55.612756023597	39
3	164	56.83087022066	40
3	168	57.254632850167	41
3	172	57.986852226868	42
3	176	58.451734219149	43
3	180	59.73937005787	44
3	184	60.223496831323	45
3	190	63.918214343035	46
3	194	66.29479400316	47
3	200	72.316715976328	48
3	208	77.894202272576	49
3	212	82.030314341613	50
3	216	82.594129294637	51
3	220	84.173426540886	52
3	224	84.914940656791	53
3	228	85.44262045648	54
3	232	86.50955947246	55
3	236	87.669365645375	56
3	240	88.0538055179	57
3	244	88.373110041793	58
3	250	91.141403020992	59
3	254	91.608727115564	60
3	258	93.680761359427	61
3	262	94.17142470219	62
3	268	97.352796209232	63

