version 2
run General-0-20230920-17:30:39-6409
attr configname General
attr datetime 20230920-17:30:39
attr experiment General
attr inifile omnetpp.ini
attr iterationvars ""
attr iterationvarsf ""
attr measurement ""
attr network Tictoc1
attr processid 6409
attr repetition 0
attr replication #0
attr resultdir results
attr runnumber 0
attr seedset 0
param Tictoc1.tic.delayTime exponential(2s)
param Tictoc1.toc.delayTime exponential(0.1s)
param Tictoc1.*.lossProbability 0.99

vector 0 Tictoc1.tic transmissionSignal:vector ETV
attr source transmissionSignal
attr title "tx_t, vector"
0	1	1.591749009132	0
0	3	3.591749009132	0
0	5	5.591749009132	0
0	7	7.591749009132	0
0	9	9.591749009132	0
0	11	11.591749009132	0
0	13	13.591749009132	0
0	15	15.591749009132	0
0	17	17.591749009132	0
0	19	19.591749009132	0
0	21	21.591749009132	0
0	23	23.591749009132	0
0	25	25.591749009132	0
0	27	27.591749009132	0
0	29	29.591749009132	0
0	31	31.591749009132	0
0	33	33.591749009132	0
0	35	35.591749009132	0
0	37	37.591749009132	0
0	39	39.591749009132	0
0	41	41.591749009132	0
0	43	43.591749009132	0
0	45	45.591749009132	0
0	47	47.591749009132	0
0	49	49.591749009132	0
0	51	51.591749009132	0
0	53	53.591749009132	0
0	55	55.591749009132	0
0	57	57.591749009132	0
0	59	59.591749009132	0
0	61	61.591749009132	0
0	63	63.591749009132	0
0	65	65.591749009132	0
0	67	67.591749009132	0
0	69	69.591749009132	0
0	71	71.591749009132	0
0	73	73.591749009132	0
0	75	75.591749009132	0
0	77	77.591749009132	0
0	79	79.591749009132	0
0	81	81.591749009132	0
0	83	83.591749009132	0
0	85	85.591749009132	0
0	87	87.591749009132	0
0	89	89.591749009132	0
0	91	91.591749009132	0
0	93	93.591749009132	0
0	95	95.591749009132	0
0	97	97.591749009132	0
0	99	99.591749009132	0

