version 2
run General-0-20230920-17:12:06-13399
attr configname General
attr datetime 20230920-17:12:06
attr experiment General
attr inifile omnetpp.ini
attr iterationvars ""
attr iterationvarsf ""
attr measurement ""
attr network Tictoc1
attr processid 13399
attr repetition 0
attr replication #0
attr resultdir results
attr runnumber 0
attr seedset 0
param Tictoc1.tic.delayTime exponential(2s)
param Tictoc1.toc.delayTime exponential(0.1s)
param Tictoc1.*.lossProbability 0.1

vector 0 Tictoc1.tic transmissionSignal:vector ETV
attr source transmissionSignal
attr title "tx_t, vector"
vector 1 Tictoc1.toc receptionSignal:vector ETV
attr source receptionSignal
attr title "rx_t, vector"
vector 2 Tictoc1.toc transmissionSignal:vector ETV
attr source transmissionSignal
attr title "tx_t, vector"
vector 3 Tictoc1.tic receptionSignal:vector ETV
attr source receptionSignal
attr title "rx_t, vector"
0	1	1.591749009132	0
0	5	5.636550509086	1
0	9	7.606107322638	2
0	13	9.815225024092	3
0	17	11.21477623423	4
0	21	11.75389801462	5
0	25	12.952937838601	6
0	29	16.654249851013	7
0	33	18.598503813535	8
0	37	22.67506775067	9
0	39	23.67506775067	9
0	43	25.973408869898	10
0	45	26.973408869898	10
0	49	33.652497493594	11
0	53	37.948249094844	12
0	57	39.816189627114	13
0	61	41.415448753856	14
0	65	44.038980234675	15
0	69	46.409366753595	16
0	73	48.16650903858	17
0	77	49.984300090101	18
0	81	51.521246066186	19
0	85	54.718376045892	20
0	89	55.467381269683	21
0	93	55.719846210814	22
0	97	56.340257283613	23
0	101	58.484497431556	24
0	105	63.630115682112	25
0	109	64.780927279896	26
0	113	69.691082643959	27
0	117	70.02576934747	28
0	121	72.4533288572	29
0	125	73.144484875967	30
0	129	76.136373124392	31
0	133	77.334183400818	32
0	137	77.696992492997	33
0	141	86.906573285866	34
0	145	89.232989623386	35
0	149	89.885618638779	36
0	153	91.935324617539	37
0	157	93.444714247229	38
0	161	95.626470096218	39
0	165	96.101631038795	40
0	169	97.171549945258	41
0	173	97.9599746716	42
1	2	1.691749009132	1
1	6	5.736550509086	2
1	10	7.706107322638	3
1	14	9.915225024092	4
1	18	11.31477623423	5
1	22	11.85389801462	6
1	26	13.052937838601	7
1	30	16.754249851013	8
1	34	18.698503813535	9
1	40	23.77506775067	10
1	46	27.073408869898	11
1	50	33.752497493594	12
1	54	38.048249094844	13
1	58	39.916189627114	14
1	62	41.515448753856	15
1	66	44.138980234675	16
1	70	46.509366753595	17
1	74	48.26650903858	18
1	78	50.084300090101	19
1	82	51.621246066186	20
1	86	54.818376045892	21
1	90	55.567381269683	22
1	94	55.819846210814	23
1	98	56.440257283613	24
1	102	58.584497431556	25
1	106	63.730115682112	26
1	110	64.880927279896	27
1	114	69.791082643959	28
1	118	70.12576934747	29
1	122	72.5533288572	30
1	126	73.244484875967	31
1	130	76.236373124392	32
1	134	77.434183400818	33
1	138	77.796992492997	34
1	142	87.006573285866	35
1	146	89.332989623386	36
1	150	89.985618638779	37
1	154	92.035324617539	38
1	158	93.544714247229	39
1	162	95.726470096218	40
1	166	96.201631038795	41
1	170	97.271549945258	42
1	174	98.0599746716	43
2	3	1.817342084937	0
2	7	5.931705042674	0
2	11	7.761212171305	0
2	15	9.963737840464	0
2	19	11.537128676434	0
2	23	11.885733628704	0
2	27	13.209827450363	0
2	31	16.819638107735	0
2	35	18.95832922212	0
2	41	23.784183853282	0
2	47	27.252157636242	0
2	51	33.76762057896	0
2	55	38.432771281758	0
2	59	40.077589834603	0
2	63	41.667102351255	0
2	67	44.266503004897	0
2	71	46.524839721645	0
2	75	48.408645506589	0
2	79	50.137856662124	0
2	83	51.641866394389	0
2	87	54.87928428821	0
2	91	55.581909072412	0
2	95	55.915984304721	0
2	99	56.46540147682	0
2	103	58.872288933684	0
2	107	63.789890289794	0
2	111	64.93838052057	0
2	115	69.801538766537	0
2	119	70.235660594225	0
2	123	72.572071463802	0
2	127	73.25828774481	0
2	131	76.329979280369	0
2	135	77.518626180171	0
2	139	77.897579593514	0
2	143	87.017336796682	0
2	147	89.433791547928	0
2	151	90.091492910288	0
2	155	92.088831085247	0
2	159	93.572741948077	0
2	163	95.76772021921	0
2	167	96.30843825851	0
2	171	97.422213478585	0
2	175	98.105976067374	0
3	4	1.917342084937	1
3	8	6.031705042674	2
3	12	7.861212171305	3
3	16	10.063737840464	4
3	20	11.637128676434	5
3	24	11.985733628704	6
3	28	13.309827450363	7
3	32	16.919638107735	8
3	36	19.05832922212	9
3	42	23.884183853282	10
3	48	27.352157636242	11
3	52	33.86762057896	12
3	56	38.532771281758	13
3	60	40.177589834603	14
3	64	41.767102351255	15
3	68	44.366503004897	16
3	72	46.624839721645	17
3	76	48.508645506589	18
3	80	50.237856662124	19
3	84	51.741866394389	20
3	88	54.97928428821	21
3	92	55.681909072412	22
3	96	56.015984304721	23
3	100	56.56540147682	24
3	104	58.972288933684	25
3	108	63.889890289794	26
3	112	65.03838052057	27
3	116	69.901538766537	28
3	120	70.335660594225	29
3	124	72.672071463802	30
3	128	73.35828774481	31
3	132	76.429979280369	32
3	136	77.618626180171	33
3	140	77.997579593514	34
3	144	87.117336796682	35
3	148	89.533791547928	36
3	152	90.191492910288	37
3	156	92.188831085247	38
3	160	93.672741948077	39
3	164	95.86772021921	40
3	168	96.40843825851	41
3	172	97.522213478585	42
3	176	98.205976067374	43

