version 2
run General-0-20230904-17:18:47-3785
attr configname General
attr datetime 20230904-17:18:47
attr experiment General
attr inifile omnetpp.ini
attr iterationvars ""
attr iterationvarsf ""
attr measurement ""
attr network Tictoc1
attr processid 3785
attr repetition 0
attr replication #0
attr resultdir results
attr runnumber 0
attr seedset 0
param Tictoc1.tic.delayTime exponential(1s)
param Tictoc1.toc.delayTime exponential(0.1s)

vector 0 Tictoc1.tic transmissionSignal:vector ETV
attr source transmissionSignal
attr title "tx_t, vector"
vector 1 Tictoc1.toc receptionSignal:vector ETV
attr source receptionSignal
attr title "rx_t, vector"
vector 2 Tictoc1.toc transmissionSignal:vector ETV
attr source transmissionSignal
attr title "tx_t, vector"
vector 3 Tictoc1.tic receptionSignal:vector ETV
attr source receptionSignal
attr title "rx_t, vector"
0	1	0.795874504566	1
0	5	2.085730543414	2
0	9	3.411323619219	3
0	13	4.797284040426	4
0	17	6.089606353573	5
0	21	7.484760887161	6
0	25	8.763481001159	7
0	29	10.151377406579	8
0	33	11.406482255246	9
0	37	12.704182897885	10
0	41	14.007998827951	11
0	45	15.256511644323	12
0	49	16.514063564011	13
0	53	17.749379477925	14
0	57	19.171731920129	15
0	61	20.377570387038	16
0	65	21.909061615031	17
0	69	23.140897229115	18
0	73	24.38925743961	19
0	77	25.654202074435	20
0	81	27.011091686197	21
0	85	28.378312806229	22
0	89	29.65358021756	23
1	2	0.895874504566	1
1	6	2.185730543414	2
1	10	3.511323619219	3
1	14	4.897284040426	4
1	18	6.189606353573	5
1	22	7.584760887161	6
1	26	8.863481001159	7
1	30	10.251377406579	8
1	34	11.506482255246	9
1	38	12.804182897885	10
1	42	14.107998827951	11
1	46	15.356511644323	12
1	50	16.614063564011	13
1	54	17.849379477925	14
1	58	19.271731920129	15
1	62	20.477570387038	16
1	66	22.009061615031	17
1	70	23.240897229115	18
1	74	24.48925743961	19
1	78	25.754202074435	20
1	82	27.111091686197	21
1	86	28.478312806229	22
1	90	29.75358021756	23
2	3	0.985730543414	1
2	7	2.311323619219	2
2	11	3.697284040426	3
2	15	4.989606353573	4
2	19	6.384760887161	5
2	23	7.663481001159	6
2	27	9.051377406579	7
2	31	10.306482255246	8
2	35	11.604182897885	9
2	39	12.907998827951	10
2	43	14.156511644323	11
2	47	15.414063564011	12
2	51	16.649379477925	13
2	55	18.071731920129	14
2	59	19.277570387038	15
2	63	20.809061615031	16
2	67	22.040897229115	17
2	71	23.28925743961	18
2	75	24.554202074435	19
2	79	25.911091686197	20
2	83	27.278312806229	21
2	87	28.55358021756	22
2	91	29.818968474282	23
3	4	1.085730543414	1
3	8	2.411323619219	2
3	12	3.797284040426	3
3	16	5.089606353573	4
3	20	6.484760887161	5
3	24	7.763481001159	6
3	28	9.151377406579	7
3	32	10.406482255246	8
3	36	11.704182897885	9
3	40	13.007998827951	10
3	44	14.256511644323	11
3	48	15.514063564011	12
3	52	16.749379477925	13
3	56	18.171731920129	14
3	60	19.377570387038	15
3	64	20.909061615031	16
3	68	22.140897229115	17
3	72	23.38925743961	18
3	76	24.654202074435	19
3	80	26.011091686197	20
3	84	27.378312806229	21
3	88	28.65358021756	22
3	92	29.918968474282	23

