version 2
run General-0-20230901-17:35:21-6395
attr configname General
attr datetime 20230901-17:35:21
attr experiment General
attr inifile omnetpp.ini
attr iterationvars ""
attr iterationvarsf ""
attr measurement ""
attr network Tictoc1
attr processid 6395
attr repetition 0
attr replication #0
attr resultdir results
attr runnumber 0
attr seedset 0

scalar Tictoc1.tic #Sent 4
scalar Tictoc1.tic #received 3
scalar Tictoc1.toc #Sent 4
scalar Tictoc1.toc #received 4

