version 2
run General-0-20230912-22:23:51-9767
attr configname General
attr datetime 20230912-22:23:51
attr experiment General
attr inifile omnetpp.ini
attr iterationvars ""
attr iterationvarsf ""
attr measurement ""
attr network Tictoc1
attr processid 9767
attr repetition 0
attr replication #0
attr resultdir results
attr runnumber 0
attr seedset 0
param Tictoc1.tic.delayTime exponential(1s)
param Tictoc1.toc.delayTime exponential(0.1s)
param Tictoc1.*.lossProbability 0.4

vector 0 Tictoc1.tic transmissionSignal:vector ETV
attr source transmissionSignal
attr title "tx_t, vector"
vector 1 Tictoc1.toc receptionSignal:vector ETV
attr source receptionSignal
attr title "rx_t, vector"
vector 2 Tictoc1.toc transmissionSignal:vector ETV
attr source transmissionSignal
attr title "tx_t, vector"
vector 3 Tictoc1.tic receptionSignal:vector ETV
attr source receptionSignal
attr title "rx_t, vector"
0	1	0.795874504566	0
0	5	2.981071792446	1
0	9	4.163427466016	2
0	13	5.395538741076	3
0	17	6.219570754331	4
0	19	8.219570754331	4
0	23	11.740321501168	5
0	25	13.740321501168	5
0	27	15.740321501168	5
0	31	17.769422313255	6
0	35	18.874243422877	7
0	37	20.874243422877	7
0	41	21.328765704769	8
0	43	23.328765704769	8
0	45	25.328765704769	8
0	49	25.990056400864	9
0	53	28.010857652369	10
0	55	30.010857652369	10
0	59	34.260168743102	11
0	63	36.234694773701	12
0	67	38.02472718981	13
0	71	39.512542332978	14
0	75	39.954504132982	15
0	79	41.865310860875	16
0	83	42.612071197166	17
0	87	43.049002514411	18
0	91	43.991613956056	19
0	93	45.991613956056	19
0	97	46.225110327986	20
0	99	48.225110327986	20
0	103	49.388320654106	21
0	105	51.388320654106	21
0	109	54.515091380315	22
0	113	55.427351352603	23
0	115	57.427351352603	23
0	119	60.011155654971	24
0	123	60.283727068015	25
0	127	61.652452446258	26
0	131	62.107401758943	27
0	133	64.107401758943	27
0	135	66.107401758943	27
0	139	67.281359515142	28
0	141	69.281359515142	28
0	143	71.281359515142	28
0	147	72.06260214159	29
0	151	75.900998468262	30
0	153	77.900998468262	30
0	157	79.13244786556	31
0	159	81.13244786556	31
0	163	82.310237990695	32
0	165	84.310237990695	32
0	169	85.216813150397	33
0	171	87.216813150397	33
0	175	87.846627125934	34
0	177	89.846627125934	34
0	181	90.534990189023	35
0	183	92.534990189023	35
0	187	95.744068140526	36
0	189	97.744068140526	36
0	193	98.129765884729	37
1	2	0.895874504566	1
1	6	3.081071792446	2
1	10	4.263427466016	3
1	14	5.495538741076	4
1	20	8.319570754331	5
1	28	15.840321501168	6
1	32	17.869422313255	7
1	38	20.974243422877	8
1	46	25.428765704769	9
1	50	26.090056400864	10
1	56	30.110857652369	11
1	60	34.360168743102	12
1	64	36.334694773701	13
1	68	38.12472718981	14
1	72	39.612542332978	15
1	76	40.054504132982	16
1	80	41.965310860875	17
1	84	42.712071197166	18
1	88	43.149002514411	19
1	94	46.091613956056	20
1	100	48.325110327986	21
1	106	51.488320654106	22
1	110	54.615091380315	23
1	116	57.527351352603	24
1	120	60.111155654971	25
1	124	60.383727068015	26
1	128	61.752452446258	27
1	136	66.207401758943	28
1	144	71.381359515142	29
1	148	72.16260214159	30
1	154	78.000998468262	31
1	160	81.23244786556	32
1	166	84.410237990695	33
1	172	87.316813150397	34
1	178	89.946627125934	35
1	184	92.634990189023	36
1	190	97.844068140526	37
2	3	1.021467580371	0
2	7	3.276226326034	0
2	11	4.318532314683	0
2	15	5.544051557448	0
2	21	8.32540922124	0
2	29	15.99721111293	0
2	33	17.934810569977	0
2	39	21.155080349304	0
2	47	25.430808263609	0
2	51	26.405073393732	0
2	57	30.31494687396	0
2	61	34.520692698808	0
2	65	36.40819121582	0
2	69	38.137314630754	0
2	73	39.699774452482	0
2	77	40.343946180781	0
2	81	41.976505476938	0
2	85	42.742799232381	0
2	89	43.282531532873	0
2	95	46.106141758785	0
2	101	48.341323976931	0
2	107	51.537176359037	0
2	111	54.729605275785	0
2	117	57.584804593277	0
2	121	60.121611777549	0
2	125	60.49361831477	0
2	129	61.77119505286	0
2	137	66.245297955371	0
2	145	71.385277830783	0
2	149	72.608051826208	0
2	155	78.02442862014	0
2	161	81.338322137069	0
2	167	84.473032148794	0
2	173	87.334125896012	0
2	179	90.053434345649	0
2	185	92.656878248674	0
2	191	98.016101306298	0
3	4	1.121467580371	1
3	8	3.376226326034	2
3	12	4.418532314683	3
3	16	5.644051557448	4
3	22	8.42540922124	5
3	30	16.09721111293	6
3	34	18.034810569977	7
3	40	21.255080349304	8
3	48	25.530808263609	9
3	52	26.505073393732	10
3	58	30.41494687396	11
3	62	34.620692698808	12
3	66	36.50819121582	13
3	70	38.237314630754	14
3	74	39.799774452482	15
3	78	40.443946180781	16
3	82	42.076505476938	17
3	86	42.842799232381	18
3	90	43.382531532873	19
3	96	46.206141758785	20
3	102	48.441323976931	21
3	108	51.637176359037	22
3	112	54.829605275785	23
3	118	57.684804593277	24
3	122	60.221611777549	25
3	126	60.59361831477	26
3	130	61.87119505286	27
3	138	66.345297955371	28
3	146	71.485277830783	29
3	150	72.708051826208	30
3	156	78.12442862014	31
3	162	81.438322137069	32
3	168	84.573032148794	33
3	174	87.434125896012	34
3	180	90.153434345649	35
3	186	92.756878248674	36
3	192	98.116101306298	37

