version 2
run General-0-20230912-18:21:47-5228
attr configname General
attr datetime 20230912-18:21:47
attr experiment General
attr inifile omnetpp.ini
attr iterationvars ""
attr iterationvarsf ""
attr measurement ""
attr network Tictoc1
attr processid 5228
attr repetition 0
attr replication #0
attr resultdir results
attr runnumber 0
attr seedset 0
param Tictoc1.tic.delayTime exponential(1s)
param Tictoc1.toc.delayTime exponential(0.1s)
param Tictoc1.*.lossProbability 0.20

vector 0 Tictoc1.tic transmissionSignal:vector ETV
attr source transmissionSignal
attr title "tx_t, vector"
vector 1 Tictoc1.toc receptionSignal:vector ETV
attr source receptionSignal
attr title "rx_t, vector"
0	1	0.795874504566	0
0	3	1.795874504566	0
0	5	2.795874504566	0
0	7	3.795874504566	0
0	9	4.795874504566	0
0	11	5.795874504566	0
0	13	6.795874504566	0
0	15	7.795874504566	0
0	17	8.795874504566	0
0	19	9.795874504566	0
0	21	10.795874504566	0
0	23	11.795874504566	0
0	25	12.795874504566	0
0	27	13.795874504566	0
0	29	14.795874504566	0
0	31	15.795874504566	0
0	33	16.795874504566	0
0	35	17.795874504566	0
0	37	18.795874504566	0
0	39	19.795874504566	0
0	41	20.795874504566	0
0	43	21.795874504566	0
0	45	22.795874504566	0
0	47	23.795874504566	0
0	49	24.795874504566	0
0	51	25.795874504566	0
0	53	26.795874504566	0
0	55	27.795874504566	0
0	57	28.795874504566	0
0	59	29.795874504566	0
0	61	30.795874504566	0
0	63	31.795874504566	0
0	65	32.795874504566	0
0	67	33.795874504566	0
0	69	34.795874504566	0
0	71	35.795874504566	0
0	73	36.795874504566	0
0	75	37.795874504566	0
0	77	38.795874504566	0
0	79	39.795874504566	0
0	81	40.795874504566	0
0	83	41.795874504566	0
0	85	42.795874504566	0
0	87	43.795874504566	0
0	89	44.795874504566	0
0	91	45.795874504566	0
0	93	46.795874504566	0
0	95	47.795874504566	0
0	97	48.795874504566	0
0	99	49.795874504566	0
0	101	50.795874504566	0
0	103	51.795874504566	0
0	105	52.795874504566	0
0	107	53.795874504566	0
0	109	54.795874504566	0
0	111	55.795874504566	0
0	113	56.795874504566	0
0	115	57.795874504566	0
0	117	58.795874504566	0
0	119	59.795874504566	0
0	121	60.795874504566	0
0	123	61.795874504566	0
0	125	62.795874504566	0
0	127	63.795874504566	0
0	129	64.795874504566	0
0	131	65.795874504566	0
0	133	66.795874504566	0
0	135	67.795874504566	0
0	137	68.795874504566	0
0	139	69.795874504566	0
0	141	70.795874504566	0
0	143	71.795874504566	0
0	145	72.795874504566	0
0	147	73.795874504566	0
0	149	74.795874504566	0
0	151	75.795874504566	0
0	153	76.795874504566	0
0	155	77.795874504566	0
0	157	78.795874504566	0
0	159	79.795874504566	0
0	161	80.795874504566	0
0	163	81.795874504566	0
0	165	82.795874504566	0
0	167	83.795874504566	0
0	169	84.795874504566	0
0	171	85.795874504566	0
0	173	86.795874504566	0
0	175	87.795874504566	0
0	177	88.795874504566	0
0	179	89.795874504566	0
0	181	90.795874504566	0
0	183	91.795874504566	0
0	185	92.795874504566	0
0	187	93.795874504566	0
0	189	94.795874504566	0
0	191	95.795874504566	0
0	193	96.795874504566	0
0	195	97.795874504566	0
0	197	98.795874504566	0
0	199	99.795874504566	0
1	2	0.895874504566	1
1	4	1.895874504566	2
1	6	2.895874504566	3
1	8	3.895874504566	4
1	10	4.895874504566	5
1	12	5.895874504566	6
1	14	6.895874504566	7
1	16	7.895874504566	8
1	18	8.895874504566	9
1	20	9.895874504566	10
1	22	10.895874504566	11
1	24	11.895874504566	12
1	26	12.895874504566	13
1	28	13.895874504566	14
1	32	15.895874504566	15
1	34	16.895874504566	16
1	36	17.895874504566	17
1	38	18.895874504566	18
1	40	19.895874504566	19
1	42	20.895874504566	20
1	44	21.895874504566	21
1	46	22.895874504566	22
1	48	23.895874504566	23
1	50	24.895874504566	24
1	52	25.895874504566	25
1	54	26.895874504566	26
1	58	28.895874504566	27
1	62	30.895874504566	28
1	66	32.895874504566	29
1	68	33.895874504566	30
1	70	34.895874504566	31
1	72	35.895874504566	32
1	76	37.895874504566	33
1	78	38.895874504566	34
1	80	39.895874504566	35
1	82	40.895874504566	36
1	84	41.895874504566	37
1	86	42.895874504566	38
1	88	43.895874504566	39
1	90	44.895874504566	40
1	92	45.895874504566	41
1	94	46.895874504566	42
1	98	48.895874504566	43
1	100	49.895874504566	44
1	102	50.895874504566	45
1	106	52.895874504566	46
1	108	53.895874504566	47
1	110	54.895874504566	48
1	112	55.895874504566	49
1	116	57.895874504566	50
1	118	58.895874504566	51
1	120	59.895874504566	52
1	124	61.895874504566	53
1	126	62.895874504566	54
1	128	63.895874504566	55
1	130	64.895874504566	56
1	132	65.895874504566	57
1	138	68.895874504566	58
1	140	69.895874504566	59
1	144	71.895874504566	60
1	146	72.895874504566	61
1	148	73.895874504566	62
1	150	74.895874504566	63
1	152	75.895874504566	64
1	154	76.895874504566	65
1	156	77.895874504566	66
1	158	78.895874504566	67
1	160	79.895874504566	68
1	162	80.895874504566	69
1	164	81.895874504566	70
1	166	82.895874504566	71
1	168	83.895874504566	72
1	174	86.895874504566	73
1	176	87.895874504566	74
1	178	88.895874504566	75
1	180	89.895874504566	76
1	184	91.895874504566	77
1	186	92.895874504566	78
1	190	94.895874504566	79
1	192	95.895874504566	80
1	194	96.895874504566	81
1	196	97.895874504566	82
1	198	98.895874504566	83
1	200	99.895874504566	84

