version 2
run General-0-20230912-14:28:56-1085
attr configname General
attr datetime 20230912-14:28:56
attr experiment General
attr inifile omnetpp.ini
attr iterationvars ""
attr iterationvarsf ""
attr measurement ""
attr network Tictoc1
attr processid 1085
attr repetition 0
attr replication #0
attr resultdir results
attr runnumber 0
attr seedset 0
param Tictoc1.tic.delayTime exponential(1s)
param Tictoc1.toc.delayTime exponential(0.1s)

vector 0 Tictoc1.tic transmissionSignal:vector ETV
attr source transmissionSignal
attr title "tx_t, vector"
vector 1 Tictoc1.toc receptionSignal:vector ETV
attr source receptionSignal
attr title "rx_t, vector"
vector 2 Tictoc1.toc transmissionSignal:vector ETV
attr source transmissionSignal
attr title "tx_t, vector"
vector 3 Tictoc1.tic receptionSignal:vector ETV
attr source receptionSignal
attr title "rx_t, vector"
0	1	0.795874504566	1
0	5	2.185730543414	2
0	9	3.611323619219	3
0	13	5.097284040426	4
0	17	6.489606353573	5
0	21	7.984760887161	6
0	25	9.363481001159	7
0	29	10.851377406579	8
0	33	12.206482255246	9
0	37	13.604182897885	10
0	41	15.007998827951	11
0	45	16.356511644323	12
0	49	17.714063564011	13
0	53	19.049379477925	14
0	57	20.571731920129	15
0	61	21.877570387038	16
0	65	23.509061615031	17
0	69	24.840897229115	18
0	73	26.18925743961	19
0	77	27.554202074435	20
0	81	29.011091686197	21
1	2	0.995874504566	1
1	6	2.385730543414	2
1	10	3.811323619219	3
1	14	5.297284040426	4
1	18	6.689606353573	5
1	22	8.184760887161	6
1	26	9.563481001159	7
1	30	11.051377406579	8
1	34	12.406482255246	9
1	38	13.804182897885	10
1	42	15.207998827951	11
1	46	16.556511644323	12
1	50	17.914063564011	13
1	54	19.249379477925	14
1	58	20.771731920129	15
1	62	22.077570387038	16
1	66	23.709061615031	17
1	70	25.040897229115	18
1	74	26.38925743961	19
1	78	27.754202074435	20
1	82	29.211091686197	21
2	3	1.085730543414	1
2	7	2.511323619219	2
2	11	3.997284040426	3
2	15	5.389606353573	4
2	19	6.884760887161	5
2	23	8.263481001159	6
2	27	9.751377406579	7
2	31	11.106482255246	8
2	35	12.504182897885	9
2	39	13.907998827951	10
2	43	15.256511644323	11
2	47	16.614063564011	12
2	51	17.949379477925	13
2	55	19.471731920129	14
2	59	20.777570387038	15
2	63	22.409061615031	16
2	67	23.740897229115	17
2	71	25.08925743961	18
2	75	26.454202074435	19
2	79	27.911091686197	20
2	83	29.378312806229	21
3	4	1.185730543414	1
3	8	2.611323619219	2
3	12	4.097284040426	3
3	16	5.489606353573	4
3	20	6.984760887161	5
3	24	8.363481001159	6
3	28	9.851377406579	7
3	32	11.206482255246	8
3	36	12.604182897885	9
3	40	14.007998827951	10
3	44	15.356511644323	11
3	48	16.714063564011	12
3	52	18.049379477925	13
3	56	19.571731920129	14
3	60	20.877570387038	15
3	64	22.509061615031	16
3	68	23.840897229115	17
3	72	25.18925743961	18
3	76	26.554202074435	19
3	80	28.011091686197	20
3	84	29.478312806229	21

