version 2
run General-1-20231004-17:57:47-8825
attr configname General
attr datetime 20231004-17:57:47
attr experiment General
attr inifile omnetpp.ini
attr iterationvars ""
attr iterationvarsf ""
attr measurement ""
attr network Multihop
attr processid 8825
attr repetition 1
attr replication #1
attr resultdir results
attr runnumber 1
attr seedset 1
param Multihop.node[*].transmissionTime "uniform(1s, 2s)"
param Multihop.node[*].delayTime "uniform(0.01s, 0.2s)"
param Multihop.node[*].processingTime exponential(0.01s)
param Multihop.node[*].lossProbability 0.75

vector 0 Multihop.node[0] txVector ETV
vector 1 Multihop.node[1] txVector ETV
vector 2 Multihop.node[2] txVector ETV
vector 3 Multihop.node[3] txVector ETV
0	1	0.089234179703	0
0	3	2.086418987836	1
0	5	4.018976349036	2
0	7	5.147100796808	3
0	9	7.146141312203	4
0	11	8.382230288467	5
0	13	9.778811014608	6
0	15	11.166721754825	7
0	17	12.836467795192	8
0	19	14.772006867804	9
0	21	16.618317786023	10
0	23	17.931591299014	11
0	25	19.45613946172	12
0	29	20.899592355476	13
0	31	22.434006262687	14
0	33	24.347968285088	15
0	35	25.805173094268	16
0	37	27.235871664365	17
0	39	29.174999459298	18
0	45	30.953388694791	19
0	47	32.046189505026	20
0	53	33.564342053259	21
0	55	35.39394541795	22
0	57	36.666995395325	23
0	61	37.726238592412	24
0	63	39.319304109202	25
0	67	40.990958200884	26
0	69	42.188509094412	27
0	71	43.478138738195	28
0	73	44.620258871116	29
0	77	46.403573343646	30
0	83	47.437744653667	31
0	85	48.736239952151	32
0	89	50.182374452822	33
0	91	51.255738627048	34
0	95	52.724977151839	35
0	97	54.628347323159	36
0	99	55.747837796923	37
0	101	57.272637179936	38
0	103	58.356260185246	39
0	105	60.273121519596	40
0	107	62.183569899411	41
0	109	63.482500010287	42
0	111	65.06688913412	43
0	113	66.632801162662	44
0	115	68.246739480995	45
0	117	70.203275139794	46
0	119	71.464254121181	47
0	121	72.695269542631	48
0	123	74.228718035506	49
0	125	76.178656169098	50
0	127	77.671715762584	51
0	129	79.212316271035	52
0	131	80.977801378235	53
0	133	82.023147103261	54
0	135	83.163113223506	55
0	139	84.95551680273	56
0	143	86.83864227438	57
0	145	88.286622457324	58
0	149	90.178758325871	59
0	151	91.717183020549	60
0	155	93.369481898729	61
0	159	94.940490460839	62
0	163	96.066805341631	63
0	167	97.714554737439	64
0	169	99.477787794662	65
0	173	100.834319511545	66
0	177	102.71566134051	67
0	179	104.21377040993	68
0	181	105.287562420941	69
0	185	107.074513894855	70
0	187	108.429824258084	71
0	189	110.371661205892	72
0	191	111.751464496017	73
0	195	113.514384563197	74
0	197	114.815745063708	75
0	199	116.588484207052	76
0	201	117.741414029501	77
0	203	119.320047961432	78
0	207	120.329055956915	79
0	211	121.799696761999	80
0	213	123.267089447356	81
0	217	124.536090497044	82
0	221	126.087415435701	83
0	223	127.559890477104	84
0	227	129.302655304201	85
0	229	130.766966811732	86
0	237	131.997329615873	87
0	239	133.516191491277	88
0	241	134.688469848248	89
0	243	136.084783136497	90
0	245	137.192148444826	91
0	247	138.701958723018	92
0	251	139.804093955435	93
0	253	141.035852418864	94
0	257	143.003520344501	95
0	259	144.237142872182	96
0	261	145.328699312522	97
0	265	146.898765970371	98
0	267	148.26660921087	99
0	271	150.079604182509	100
0	275	151.796995784505	101
0	279	153.223905608174	102
0	281	154.651718243374	103
0	283	156.080100652878	104
0	285	157.442005102406	105
0	287	158.595343586406	106
0	289	160.532533912337	107
0	291	162.448943785508	108
0	293	164.230902248178	109
0	295	165.847231191	110
0	297	166.883230626699	111
0	299	168.537554398295	112
0	301	169.667324011097	113
0	305	170.961683482979	114
0	307	172.236328636179	115
0	309	173.310297634103	116
0	311	174.462434791377	117
0	313	175.624053320963	118
0	315	177.562765018897	119
0	321	178.933898914255	120
0	323	180.232579157105	121
0	325	181.436937281279	122
0	329	183.418693916289	123
0	331	185.178042715531	124
0	333	186.829163280897	125
0	335	187.868846782832	126
0	337	189.682723144651	127
0	339	191.445296282298	128
0	341	192.900578752277	129
0	345	194.432405198576	130
0	347	195.578437942198	131
0	349	197.087226680831	132
0	351	198.302876956181	133
1	27	19.468747620219	0
1	41	29.19758623141	1
1	49	32.076215809797	2
1	59	36.688098035634	3
1	65	39.334610785663	4
1	75	44.635578322661	5
1	79	46.423355802462	6
1	87	48.748751840706	7
1	93	51.266749791935	8
1	137	83.173415767956	9
1	141	84.973299239922	10
1	147	88.301363928865	11
1	153	91.731665614503	12
1	157	93.389638493256	13
1	161	94.962208892498	14
1	165	96.081173956576	15
1	171	99.501762898938	16
1	175	100.844436889682	17
1	183	105.298224538297	18
1	193	111.776230844916	19
1	205	119.342393742906	20
1	209	120.353520332149	21
1	215	123.294909078825	22
1	219	124.546817080298	23
1	225	127.57202186571	24
1	231	130.784064609874	25
1	249	138.715365583699	26
1	255	141.049114137343	27
1	263	145.344110898685	28
1	269	148.280030734273	29
1	273	150.099096147123	30
1	277	151.82093392894	31
1	303	169.681799620778	32
1	317	177.573278142206	33
1	327	181.469288528325	34
1	343	192.911736633263	35
2	43	29.223819445002	0
2	51	32.103885321983	1
2	81	46.444162614362	2
2	233	130.796403726931	3
2	319	177.596785698588	4
3	235	130.806909338826	0

