version 2
run General-2-20231004-17:57:47-8825
attr configname General
attr datetime 20231004-17:57:47
attr experiment General
attr inifile omnetpp.ini
attr iterationvars ""
attr iterationvarsf ""
attr measurement ""
attr network Multihop
attr processid 8825
attr repetition 2
attr replication #2
attr resultdir results
attr runnumber 2
attr seedset 2
param Multihop.node[*].transmissionTime "uniform(1s, 2s)"
param Multihop.node[*].delayTime "uniform(0.01s, 0.2s)"
param Multihop.node[*].processingTime exponential(0.01s)
param Multihop.node[*].lossProbability 0.75

vector 0 Multihop.node[0] txVector ETV
vector 1 Multihop.node[1] txVector ETV
vector 2 Multihop.node[2] txVector ETV
vector 3 Multihop.node[3] txVector ETV
0	1	0.092839031499	0
0	3	1.277921112972	1
0	5	3.20946197656	2
0	7	5.157192587406	3
0	9	6.641941683619	4
0	11	7.962478119899	5
0	13	9.116904795422	6
0	15	10.815767484736	7
0	17	11.935718028592	8
0	19	13.420893943422	9
0	21	15.053631674052	10
0	23	16.871858396121	11
0	25	18.554884391158	12
0	27	20.053445558782	13
0	29	21.640242537736	14
0	35	23.359996768666	15
0	39	24.767304601168	16
0	41	26.736937008818	17
0	43	28.033955368699	18
0	45	29.321824188597	19
0	47	30.438017511295	20
0	49	31.619744548594	21
0	51	33.114034316522	22
0	53	34.679799446856	23
0	55	35.901634614003	24
0	57	37.669125790495	25
0	59	39.246433860642	26
0	61	40.414257175076	27
0	63	41.781728544059	28
0	65	43.250402126481	29
0	67	44.904668308581	30
0	69	46.697758051586	31
0	71	48.360819847109	32
0	75	49.973849540828	33
0	77	51.093334340044	34
0	79	52.241899120408	35
0	83	54.094180153469	36
0	87	55.311450073282	37
0	89	56.62674755442	38
0	91	57.885480725458	39
0	93	59.694656010503	40
0	97	61.048331383867	41
0	101	62.322504637316	42
0	103	64.136643054215	43
0	105	66.084733477579	44
0	109	67.907618112647	45
0	111	69.128616267134	46
0	113	70.875247680134	47
0	115	72.306785450102	48
0	123	74.195089196571	49
0	127	75.901631198608	50
0	129	77.86194492855	51
0	131	79.287967455591	52
0	133	80.610841672652	53
0	135	82.372771671525	54
0	139	84.305400232336	55
0	141	85.822830993467	56
0	143	87.707302592712	57
0	145	89.260936438589	58
0	147	90.834578936937	59
0	151	92.228512228251	60
0	153	93.234056649281	61
0	155	94.962555151683	62
0	159	96.318308775563	63
0	161	97.680336182256	64
0	163	99.558636470948	65
0	165	100.921962362266	66
0	167	102.425169279351	67
0	169	104.192657538009	68
0	171	106.107133109839	69
0	173	107.933501115552	70
0	175	109.34524755624	71
0	179	110.97609021237	72
0	181	112.357783150877	73
0	183	114.320242726495	74
0	185	115.967256952328	75
0	187	117.925102624129	76
0	189	119.728554753372	77
0	191	120.957940717479	78
0	193	122.837142747845	79
0	195	124.429639111058	80
0	197	126.21581135692	81
0	203	127.747955797724	82
0	207	129.224799203937	83
0	211	130.823779176473	84
0	213	132.192386718019	85
0	217	133.408193115396	86
0	219	135.206413703989	87
0	221	136.760953177484	88
0	225	138.656098916214	89
0	227	140.633732307022	90
0	229	142.551451028809	91
0	233	143.591462263856	92
0	235	145.487836140226	93
0	237	147.325666688168	94
0	239	148.862120386231	95
0	241	150.183438969794	96
0	243	151.580692962063	97
0	245	152.858132177284	98
0	247	154.794380220603	99
0	249	156.258122828575	100
0	251	158.110411788821	101
0	253	159.323179159798	102
0	255	160.323302743975	103
0	257	161.416199009884	104
0	259	162.591315398943	105
0	261	164.106174566103	106
0	263	165.986164917257	107
0	265	167.770956840152	108
0	267	169.300778016001	109
0	269	170.574615885522	110
0	271	171.601000031708	111
0	277	173.470708652884	112
0	279	174.976120288037	113
0	281	176.311214952283	114
0	283	177.472910385132	115
0	287	178.692200358045	116
0	289	180.412548382087	117
0	291	181.464036572278	118
0	295	183.087308905339	119
0	297	184.900090856962	120
0	299	186.445963560157	121
0	301	187.46423359613	122
0	303	188.480343861292	123
0	305	190.41537958921	124
0	307	191.805965269237	125
0	309	193.716620786135	126
0	311	195.53608616164	127
0	313	196.626456539631	128
0	315	197.984696847405	129
0	317	199.003681975435	130
1	31	21.653233313036	0
1	37	23.371944572619	1
1	73	48.417762043784	2
1	81	52.259022948042	3
1	85	54.154186446557	4
1	95	59.710964168153	5
1	99	61.074336184849	6
1	107	66.101972410362	7
1	117	72.345120445438	8
1	125	74.211648129712	9
1	137	82.395192477246	10
1	149	90.870689998028	11
1	157	94.974949573767	12
1	177	109.359431716423	13
1	199	126.260322769301	14
1	205	127.763422715793	15
1	209	129.235926105207	16
1	215	132.21884831485	17
1	223	136.797423655269	18
1	231	142.574649448819	19
1	273	171.614221909284	20
1	285	177.501020887669	21
1	293	181.477409067188	22
2	33	21.67113446133	0
2	119	72.362112344448	1
2	201	126.27887833723	2
2	275	171.625790908002	3
3	121	72.384220373107	0

