version 2
run General-4-20231004-17:57:47-8825
attr configname General
attr datetime 20231004-17:57:47
attr experiment General
attr inifile omnetpp.ini
attr iterationvars ""
attr iterationvarsf ""
attr measurement ""
attr network Multihop
attr processid 8825
attr repetition 4
attr replication #4
attr resultdir results
attr runnumber 4
attr seedset 4
param Multihop.node[*].transmissionTime "uniform(1s, 2s)"
param Multihop.node[*].delayTime "uniform(0.01s, 0.2s)"
param Multihop.node[*].processingTime exponential(0.01s)
param Multihop.node[*].lossProbability 0.75

vector 0 Multihop.node[0] txVector ETV
vector 1 Multihop.node[1] txVector ETV
vector 2 Multihop.node[2] txVector ETV
vector 3 Multihop.node[3] txVector ETV
vector 4 Multihop.node[4] txVector ETV
0	1	0.193735669288	0
0	3	2.094357123985	1
0	7	3.267052448974	2
0	9	4.876088047088	3
0	11	6.473644252787	4
0	15	7.615108425649	5
0	17	9.313528665029	6
0	19	11.21670719135	7
0	23	12.849670290867	8
0	29	14.422026782682	9
0	31	15.8137929781	10
0	33	17.62574072826	11
0	35	19.238266071456	12
0	37	20.504739854636	13
0	41	22.148654117866	14
0	49	23.167678859003	15
0	51	24.609027392382	16
0	53	25.67473693114	17
0	55	26.85059816615	18
0	57	28.716480921174	19
0	59	30.560009039857	20
0	61	32.485162198928	21
0	65	34.355468674249	22
0	67	35.616440753139	23
0	69	36.652198941366	24
0	71	37.880961611553	25
0	73	39.092142167187	26
0	75	40.272862761433	27
0	77	41.588978980354	28
0	79	42.830017585459	29
0	81	44.205386019231	30
0	83	45.838049997495	31
0	87	47.061082518113	32
0	89	48.638079486939	33
0	91	49.989753198496	34
0	93	51.457503551536	35
0	95	52.816269924783	36
0	97	53.899439019536	37
0	99	55.152348628653	38
0	103	56.199754123729	39
0	105	57.435895446142	40
0	107	59.246800383007	41
0	109	60.372982043693	42
0	111	61.44868841899	43
0	115	63.134276622361	44
0	119	64.44995011032	45
0	123	66.148115715165	46
0	125	68.052691807425	47
0	127	69.42911127807	48
0	133	71.275833549829	49
0	135	72.94534342402	50
0	137	74.025322663983	51
0	139	75.069970492426	52
0	141	76.165168569809	53
0	145	77.382598858712	54
0	147	78.482979285683	55
0	149	79.54723066293	56
0	151	81.49118133603	57
0	153	82.654053057929	58
0	155	84.245926703711	59
0	157	86.196281363641	60
0	161	87.56305103252	61
0	163	89.083725433949	62
0	165	90.390738105554	63
0	167	92.223886656728	64
0	169	94.153255256977	65
0	173	95.282190590784	66
0	177	97.068943736762	67
0	181	98.719384845965	68
0	183	99.955536512113	69
0	185	101.436996455458	70
0	189	103.364405065929	71
0	191	104.517433317998	72
0	193	106.485112947333	73
0	195	107.805728594228	74
0	197	109.691525687152	75
0	199	111.23690260124	76
0	201	112.608008784164	77
0	203	113.74493460233	78
0	205	114.857444937962	79
0	211	115.929728193597	80
0	213	117.806521050322	81
0	215	119.743655555804	82
0	217	121.246303628587	83
0	221	122.993798442107	84
0	223	123.99771933925	85
0	225	125.460048701536	86
0	227	126.60551102894	87
0	233	127.914305593508	88
0	237	129.831817402194	89
0	241	130.921959124661	90
0	251	132.483427588751	91
0	253	134.145730023894	92
0	255	135.729273555491	93
0	257	137.456136579316	94
0	259	139.36051320114	95
0	261	140.377230862545	96
0	263	142.273922717588	97
0	265	143.777823700726	98
0	267	145.392643149633	99
0	271	146.527388795668	100
0	273	148.161958289955	101
0	275	149.653745927539	102
0	277	151.585160195053	103
0	279	153.521054029156	104
0	281	155.021015483344	105
0	285	156.430650972452	106
0	289	157.946422650635	107
0	291	159.816814792033	108
0	293	161.714906569726	109
0	295	162.854088369214	110
0	301	164.583642957888	111
0	303	165.89991946371	112
0	305	167.653774913556	113
0	309	168.933006853952	114
0	315	170.15998787332	115
0	317	171.81071295791	116
0	319	173.118129570425	117
0	321	175.115533558341	118
0	325	176.410166116819	119
0	327	177.674426626103	120
0	337	179.096792572333	121
0	339	180.824521243727	122
0	341	182.514306537729	123
0	347	183.965927230116	124
0	351	185.917897650661	125
0	353	187.231264276817	126
0	355	189.221381196906	127
0	357	191.105423583803	128
0	359	192.125365943569	129
0	361	193.228161184038	130
0	363	194.322241826602	131
0	365	195.58803915271	132
0	367	196.782986840386	133
0	371	198.177123173526	134
0	373	199.2652337392	135
1	5	2.123710255091	0
1	13	6.486186802175	1
1	21	11.226758916392	2
1	25	12.864156569603	3
1	39	20.531403223769	4
1	43	22.159060050178	5
1	63	32.513195867118	6
1	85	45.849543716045	7
1	101	55.188856822647	8
1	113	61.488077029729	9
1	117	63.165173325199	10
1	121	64.464356470848	11
1	129	69.452332880222	12
1	143	76.191620078072	13
1	159	86.206499921673	14
1	171	94.1810418396	15
1	175	95.303890946851	16
1	179	97.106636316338	17
1	187	101.448949404719	18
1	207	114.86959221706	19
1	219	121.263001277335	20
1	229	126.629503288376	21
1	235	127.95114244132	22
1	239	129.843990318146	23
1	243	130.932063938766	24
1	269	145.409029134735	25
1	283	155.047666951474	26
1	287	156.447378324499	27
1	297	162.872420381165	28
1	307	167.665048438063	29
1	311	168.957877801365	30
1	323	175.136563143088	31
1	329	177.705388670991	32
1	343	182.530930857975	33
1	349	183.976093439962	34
1	369	196.808567280762	35
2	27	12.883423312579	0
2	45	22.198064970194	1
2	131	69.474338700017	2
2	209	114.879621525924	3
2	231	126.653582938945	4
2	245	130.944676247536	5
2	299	162.904583330373	6
2	313	168.98337340294	7
2	331	177.724470852214	8
2	345	182.546126386667	9
3	47	22.213977181363	0
3	247	130.955051828687	1
3	333	177.737763013482	2
4	249	130.965933393546	0
4	335	177.761595683543	1

