version 2
run General-3-20231004-17:57:47-8825
attr configname General
attr datetime 20231004-17:57:47
attr experiment General
attr inifile omnetpp.ini
attr iterationvars ""
attr iterationvarsf ""
attr measurement ""
attr network Multihop
attr processid 8825
attr repetition 3
attr replication #3
attr resultdir results
attr runnumber 3
attr seedset 3
param Multihop.node[*].transmissionTime "uniform(1s, 2s)"
param Multihop.node[*].delayTime "uniform(0.01s, 0.2s)"
param Multihop.node[*].processingTime exponential(0.01s)
param Multihop.node[*].lossProbability 0.75

vector 0 Multihop.node[0] txVector ETV
vector 1 Multihop.node[1] txVector ETV
vector 2 Multihop.node[2] txVector ETV
vector 3 Multihop.node[3] txVector ETV
0	1	0.114651601831	0
0	3	1.185376482154	1
0	5	3.025325524457	2
0	7	4.146654103719	3
0	13	5.71596542939	4
0	15	6.756596166942	5
0	17	8.004484468674	6
0	19	9.098035964252	7
0	21	10.792859621414	8
0	23	11.938229768838	9
0	25	13.391402068383	10
0	27	14.606979080777	11
0	29	15.960884153678	12
0	31	17.453520074787	13
0	33	19.366821527549	14
0	35	21.132647902074	15
0	37	23.106296173132	16
0	39	24.508656815461	17
0	41	26.061428763972	18
0	43	27.367789391031	19
0	45	28.95440936305	20
0	47	30.229329470614	21
0	49	31.683937235571	22
0	53	33.441602481132	23
0	55	34.699187772883	24
0	57	36.59225287924	25
0	63	38.310674904449	26
0	69	39.635981081588	27
0	71	41.06068269147	28
0	73	42.474401375115	29
0	75	44.261539875599	30
0	77	45.975105623318	31
0	79	46.998223191895	32
0	81	48.313990440289	33
0	83	49.876760536641	34
0	85	51.624917973368	35
0	87	53.234541637427	36
0	89	54.437896166299	37
0	93	56.091527018765	38
0	95	57.962599069415	39
0	97	59.773826825735	40
0	99	61.147951553878	41
0	101	62.223151667579	42
0	103	63.983730157907	43
0	105	65.04749995966	44
0	107	66.888541119476	45
0	109	68.581174866599	46
0	111	70.027075307281	47
0	113	71.38941576595	48
0	115	72.905510385358	49
0	117	74.362842560583	50
0	119	76.17120479357	51
0	121	77.48748932716	52
0	123	79.331276422437	53
0	125	80.820567678032	54
0	127	82.360687279446	55
0	129	84.186815354112	56
0	131	85.70841969091	57
0	133	86.851019037259	58
0	135	88.153282650816	59
0	139	89.960305325757	60
0	141	90.981531065959	61
0	143	92.463976868499	62
0	145	93.490003135126	63
0	147	94.995577192936	64
0	149	96.913607215347	65
0	151	98.120573350998	66
0	153	100.046306135437	67
0	155	101.323629184464	68
0	157	102.499691299699	69
0	159	104.489992488246	70
0	161	106.182643104648	71
0	163	107.93478313468	72
0	165	109.050999725075	73
0	169	110.137000440457	74
0	171	111.466571798385	75
0	173	112.828222415945	76
0	175	114.354333415464	77
0	181	115.77906336619	78
0	183	117.660174106317	79
0	187	119.460777617129	80
0	189	121.233516300632	81
0	193	123.130012958613	82
0	195	124.41342033057	83
0	197	126.295328778285	84
0	199	127.840711395094	85
0	201	129.668733512122	86
0	203	130.902425521357	87
0	211	132.105303169532	88
0	213	133.574684481906	89
0	215	135.077214698145	90
0	221	136.249577597553	91
0	223	138.136475724937	92
0	225	139.639731015149	93
0	227	141.211968635046	94
0	229	142.554388221889	95
0	233	144.16403393664	96
0	235	145.202952034376	97
0	237	147.202927498217	98
0	239	148.47087525304	99
0	241	149.728081631079	100
0	243	151.004723177828	101
0	245	152.256464688411	102
0	247	154.154201717652	103
0	249	155.989448028221	104
0	251	157.135764250602	105
0	255	159.13120742545	106
0	257	160.678338179668	107
0	259	162.170153727825	108
0	261	163.299812111841	109
0	265	165.159865574749	110
0	269	166.984196969146	111
0	271	168.975492690062	112
0	273	170.133162445459	113
0	277	171.603828426754	114
0	279	172.943834351912	115
0	283	174.640584339691	116
0	285	176.457619700651	117
0	287	178.30534165476	118
0	289	179.386912697298	119
0	293	180.694596425468	120
0	295	182.614456841094	121
0	297	183.70933817497	122
0	299	185.115237159026	123
0	301	186.653700850741	124
0	303	188.303274109331	125
0	307	189.613235744019	126
0	315	191.109900698601	127
0	317	193.107713098475	128
0	319	194.267360256822	129
0	325	196.086902340478	130
0	327	197.373206468834	131
0	329	199.086811012891	132
1	9	4.162399960467	0
1	51	31.710951162851	1
1	59	36.602461178709	2
1	65	38.337226016817	3
1	91	54.458763584502	4
1	137	88.167131852426	5
1	167	109.071954634953	6
1	177	114.381469225424	7
1	185	117.674480785111	8
1	191	121.2589215	9
1	205	130.944206755755	10
1	217	135.090758714213	11
1	231	142.565673573607	12
1	253	157.150160610357	13
1	263	163.312276206779	14
1	267	165.233538067016	15
1	275	170.155453010201	16
1	281	172.967633806281	17
1	291	179.405144943141	18
1	305	188.331684894683	19
1	309	189.635400912216	20
1	321	194.28096275998	21
1	331	199.108773230914	22
2	11	4.172589220288	0
2	61	36.614001054485	1
2	67	38.352317469782	2
2	179	114.399938848638	3
2	207	130.96873762756	4
2	219	135.103889497031	5
2	311	189.656760410864	6
2	323	194.292082379495	7
2	333	199.11903182454	8
3	209	130.980823266688	0
3	313	189.676526223448	1

