version 2
run General-0-20231004-17:57:47-8825
attr configname General
attr datetime 20231004-17:57:47
attr experiment General
attr inifile omnetpp.ini
attr iterationvars ""
attr iterationvarsf ""
attr measurement ""
attr network Multihop
attr processid 8825
attr repetition 0
attr replication #0
attr resultdir results
attr runnumber 0
attr seedset 0
param Multihop.node[*].transmissionTime "uniform(1s, 2s)"
param Multihop.node[*].delayTime "uniform(0.01s, 0.2s)"
param Multihop.node[*].processingTime exponential(0.01s)
param Multihop.node[*].lossProbability 0.75

vector 0 Multihop.node[0] txVector ETV
vector 1 Multihop.node[1] txVector ETV
vector 2 Multihop.node[2] txVector ETV
vector 3 Multihop.node[3] txVector ETV
vector 4 Multihop.node[4] txVector ETV
vector 5 Multihop.node[5] rxVector ETV
0	1	0.114274565438	0
0	3	1.707119181827	1
0	5	3.551384925917	2
0	7	5.409330545766	3
0	9	7.256582283023	4
0	11	8.88014597942	5
0	13	10.264527687643	6
0	19	11.562062292898	7
0	23	13.039727404553	8
0	25	14.519704575955	9
0	29	15.912489369118	10
0	31	17.249885530749	11
0	33	18.898057407306	12
0	43	20.266298944668	13
0	45	22.067209697167	14
0	49	23.587687177655	15
0	51	25.308319829243	16
0	53	26.890339620483	17
0	57	28.427712848714	18
0	59	29.533620455141	19
0	61	31.007220877872	20
0	65	32.193553222415	21
0	67	33.410103579123	22
0	69	34.545321752388	23
0	71	35.869462756511	24
0	73	37.019137620298	25
0	75	38.241459005816	26
0	79	39.627947983869	27
0	81	41.07789797343	28
0	83	42.690961435276	29
0	85	44.593310013485	30
0	87	45.692590365025	31
0	89	47.662399433625	32
0	91	49.315539465823	33
0	93	50.486449051953	34
0	95	51.844601222153	35
0	97	53.595287361021	36
0	99	55.203118027725	37
0	101	56.528165255279	38
0	103	57.566590680812	39
0	107	59.200864733967	40
0	109	60.853655052909	41
0	111	62.488713929967	42
0	113	64.484013495573	43
0	115	66.065863827781	44
0	117	67.480232415793	45
0	119	68.954929920917	46
0	121	70.578440026918	47
0	123	71.916447644427	48
0	125	73.591199966685	49
0	127	74.90840171145	50
0	129	76.686747193175	51
0	131	78.636318244577	52
0	135	80.298845112628	53
0	139	81.92169120589	54
0	143	83.89363620484	55
0	147	85.403260576611	56
0	149	86.854419790513	57
0	151	87.874407462848	58
0	153	89.316118384318	59
0	155	91.295705114796	60
0	157	92.655149583777	61
0	159	94.136043120015	62
0	161	95.824704306272	63
0	163	97.705180199423	64
0	165	99.623415672292	65
0	167	100.840237805459	66
0	169	102.405426671102	67
0	171	104.270529235087	68
0	173	105.779498196046	69
0	175	107.696221152625	70
0	177	109.617378764625	71
0	181	110.700491251263	72
0	183	111.70984795301	73
0	185	113.552190032161	74
0	187	115.199364170737	75
0	189	117.0407502929	76
0	191	118.305480457216	77
0	193	119.703301208864	78
0	195	121.256122693026	79
0	199	122.421063153611	80
0	201	123.567504916878	81
0	203	125.137123321255	82
0	205	126.840860602052	83
0	209	128.129337034493	84
0	211	129.885443725928	85
0	213	131.281542004158	86
0	215	133.177580393457	87
0	217	134.816501473614	88
0	221	136.70805590444	89
0	225	138.157253636352	90
0	227	139.273455546309	91
0	231	141.040479248927	92
0	235	142.715918326124	93
0	239	144.029136658253	94
0	241	145.617601741643	95
0	243	147.277270155798	96
0	247	148.810476407481	97
0	249	150.205345699636	98
0	251	151.824154260641	99
0	253	153.299021782193	100
0	255	154.769153970599	101
0	257	156.485228504127	102
0	259	157.773219507959	103
0	261	159.156681733977	104
0	263	160.905851570031	105
0	265	162.78430376116	106
0	267	163.887167121124	107
0	269	164.979541007735	108
0	271	166.333587672169	109
0	273	167.885403927256	110
0	275	168.91902902101	111
0	277	170.887990787	112
0	279	172.208988030747	113
0	283	173.430250713442	114
0	285	174.527510640052	115
0	291	176.511552875469	116
0	293	177.959479049154	117
0	297	179.059048133975	118
0	301	180.528297305646	119
0	305	182.432945049907	120
0	307	183.941260500186	121
0	309	185.108108018133	122
0	315	186.887159036313	123
0	317	188.027131619471	124
0	319	189.060354005852	125
0	321	191.042928962576	126
0	323	192.416219715335	127
0	325	193.836295083006	128
0	333	194.886883195796	129
0	335	196.651794893741	130
0	337	198.59591841449	131
1	15	10.275111534334	0
1	21	11.588784404901	1
1	27	14.547788268598	2
1	35	18.939559106593	3
1	47	22.088569086584	4
1	55	26.914553267284	5
1	63	31.030573779718	6
1	77	38.274748139558	7
1	105	57.608520147233	8
1	133	78.646454890361	9
1	137	80.320043256286	10
1	141	81.952744418898	11
1	145	83.904209474104	12
1	179	109.63063216878	13
1	197	121.270740001986	14
1	207	126.856539643587	15
1	219	134.837897553249	16
1	223	136.756485970272	17
1	229	139.288762771275	18
1	233	141.053353353688	19
1	237	142.759562030655	20
1	245	147.289890728215	21
1	281	172.220510967	22
1	287	174.540526299184	23
1	295	177.973822505713	24
1	299	179.087445461826	25
1	303	180.538680134775	26
1	311	185.138127883088	27
1	327	193.850844201454	28
2	17	10.288295095742	0
2	37	18.95107141513	1
2	289	174.558227067779	2
2	313	185.153427911869	3
2	329	193.861011879114	4
3	39	18.981480337289	0
3	331	193.873635172206	1
4	41	18.997897429016	0
5	42	19.007897429016	0

