version 2
run General-4-20231008-05:37:12-14406
attr configname General
attr datetime 20231008-05:37:12
attr experiment General
attr inifile omnetpp.ini
attr iterationvars ""
attr iterationvarsf ""
attr measurement ""
attr network Reliability
attr processid 14406
attr repetition 4
attr replication #4
attr resultdir results
attr runnumber 4
attr seedset 4
param Reliability.node[*].transmissionTime "uniform(1s, 2s)"
param Reliability.node[*].delayTime "uniform(0.01s, 0.2s)"
param Reliability.node[*].processingTime exponential(0.01s)
param Reliability.node[*].lossProbability 0.4

vector 0 Reliability.node[0] txVector ETV
vector 1 Reliability.node[1] txVector ETV
vector 2 Reliability.node[3] txVector ETV
vector 3 Reliability.node[2] txVector ETV
vector 4 Reliability.node[4] txVector ETV
vector 5 Reliability.node[5] rxVector ETV
0	1	0.193735669288	0
0	17	2.094357123985	1
0	23	3.997535650306	2
0	36	5.569892142121	3
0	52	6.614052195721	4
0	54	8.214794922773	5
0	70	9.382767106559	6
0	72	10.927969760414	7
0	74	12.452373844491	8
0	76	14.089984093247	9
0	78	15.49147953574	10
0	80	17.141284648948	11
0	89	18.538184652491	12
0	95	19.889858364048	13
0	104	20.973027458801	14
0	117	22.610584526942	15
0	126	24.486856602752	16
0	138	26.058995373701	17
0	140	27.304449084136	18
0	142	29.037042536228	19
0	158	30.931693829517	20
0	160	32.699451870672	21
0	176	33.74798601043	22
0	185	35.258229642097	23
0	191	37.185638252568	24
0	207	39.153317881903	25
0	223	40.346556959829	26
0	239	41.808886322115	27
0	248	43.0041910323	28
0	250	44.977469029758	29
0	266	46.017560151327	30
0	268	47.290031612539	31
0	281	49.239700556188	32
0	297	50.649336045296	33
0	303	52.214680405953	34
0	309	53.968535855799	35
0	325	55.195516875167	36
0	327	56.459777384451	37
0	340	57.882143330681	38
0	352	59.439225403746	39
0	358	60.660806327979	40
0	360	61.973011362054	41
0	362	63.091456881645	42
0	364	64.466797026726	43
0	366	65.4965710248	44
0	368	67.034352694325	45
0	384	68.980180990103	46
0	386	70.887645639166	47
0	402	72.072854873877	48
0	404	73.125289752999	49
0	406	74.984010602733	50
0	419	76.323235507974	51
0	421	78.031380382053	52
0	430	79.056782083505	53
0	432	80.113988003845	54
0	434	81.662793126342	55
0	450	83.262590615929	56
0	466	85.201484589989	57
0	472	86.324273839046	58
0	474	87.558054268977	59
0	486	88.94163427843	60
0	488	90.074476285057	61
0	501	91.15718389597	62
0	503	92.789474435302	63
0	519	94.324494601844	64
0	521	96.213505094556	65
0	537	97.620260920759	66
0	550	98.689230354886	67
0	566	100.266594051068	68
0	582	101.694749031599	69
0	598	103.014174222631	70
0	614	104.071899323176	71
0	616	105.643133527051	72
0	632	106.76261544359	73
0	645	108.526824282865	74
0	661	109.649274230153	75
0	674	111.393243719508	76
0	676	112.955105988924	77
0	682	114.812599224886	78
0	684	116.09987750967	79
0	686	117.38518844583	80
0	688	119.082239884799	81
0	690	121.037305822279	82
0	699	122.587453249758	83
0	715	124.552982559577	84
0	731	126.30604810399	85
0	747	127.586637920849	86
0	763	129.290903050601	87
0	765	131.17194028656	88
0	781	132.486523931762	89
0	797	133.541600934379	90
0	799	134.689006282399	91
0	801	136.476054254836	92
0	803	137.990878055022	93
0	805	139.555735160281	94
0	821	140.674880056559	95
0	823	142.590141820871	96
0	829	143.6524145146	97
0	831	145.542070353553	98
0	847	146.599682155913	99
0	853	148.594173816648	100
0	855	149.851009238661	101
0	864	151.712332571075	102
0	877	153.676082012859	103
0	886	155.551259440985	104
0	888	157.04612915908	105
0	894	158.810121207647	106
0	910	160.114462736212	107
0	919	161.412789731901	108
0	928	163.184487838447	109
0	930	164.514249971984	110
0	932	166.004921883959	111
0	941	167.988887594696	112
0	943	169.898948262362	113
0	959	171.199010103625	114
0	968	172.421260829466	115
0	984	174.318884416866	116
0	990	176.209342250983	117
0	992	177.787012794903	118
0	994	179.014930293346	119
0	1010	180.346244525779	120
0	1012	182.327104160944	121
0	1014	184.235882422337	122
0	1030	186.020169909727	123
0	1039	187.604620589325	124
0	1055	188.669619260272	125
0	1071	190.118299385682	126
0	1083	191.820730524054	127
0	1092	193.037071898263	128
0	1108	194.173246151451	129
0	1114	195.60805390208	130
0	1116	197.262190771671	131
0	1118	198.321075948104	132
0	1127	199.429086974971	133
0	1143	200.667831628267	134
0	1152	201.730838690102	135
0	1168	202.87715029615	136
0	1170	203.917348142863	137
0	1186	204.994907311081	138
0	1195	206.669735336361	139
0	1197	207.849580513697	140
0	1209	209.331340941751	141
0	1215	210.649897370405	142
0	1221	212.447745805291	143
0	1223	213.937170537339	144
0	1236	214.985820025123	145
0	1242	216.06325117048	146
0	1244	217.534198545768	147
0	1246	219.079522006829	148
0	1252	220.942519159206	149
0	1261	222.219816652742	150
0	1267	223.981426616815	151
0	1269	225.135584231383	152
0	1285	227.030727845301	153
0	1291	228.163094705819	154
0	1303	229.3733259427	155
0	1312	230.963567739037	156
0	1325	232.827710578601	157
0	1327	234.373899367322	158
0	1329	235.549085355048	159
0	1342	236.774320645175	160
0	1348	238.11743783407	161
0	1350	239.444539394612	162
1	3	0.205631491707	0
1	3	0.205631491707	1
1	3	0.205631491707	2
1	19	2.114380052882	3
1	19	2.114380052882	4
1	19	2.114380052882	5
1	25	4.012021929042	6
1	25	4.012021929042	7
1	25	4.012021929042	8
1	38	5.61127731223	9
1	38	5.61127731223	10
1	38	5.61127731223	11
1	56	8.23801423753	12
1	56	8.23801423753	13
1	56	8.23801423753	14
1	82	17.161064079597	15
1	82	17.161064079597	16
1	82	17.161064079597	17
1	91	18.554491078876	18
1	91	18.554491078876	19
1	91	18.554491078876	20
1	97	19.902774055008	21
1	97	19.902774055008	22
1	97	19.902774055008	23
1	106	20.985152541959	24
1	106	20.985152541959	25
1	106	20.985152541959	26
1	119	22.632563294666	27
1	119	22.632563294666	28
1	119	22.632563294666	29
1	128	24.515528567989	30
1	128	24.515528567989	31
1	128	24.515528567989	32
1	144	29.054273116543	33
1	144	29.054273116543	34
1	144	29.054273116543	35
1	162	32.71061516544	36
1	162	32.71061516544	37
1	162	32.71061516544	38
1	178	33.784120779761	39
1	178	33.784120779761	40
1	178	33.784120779761	41
1	187	35.270182591358	42
1	187	35.270182591358	43
1	187	35.270182591358	44
1	193	37.199503935108	45
1	193	37.199503935108	46
1	193	37.199503935108	47
1	209	39.163347190767	48
1	209	39.163347190767	49
1	209	39.163347190767	50
1	225	40.35812890673	51
1	225	40.35812890673	52
1	225	40.35812890673	53
1	241	41.827129557636	54
1	241	41.827129557636	55
1	241	41.827129557636	56
1	252	44.987630031671	57
1	252	44.987630031671	58
1	252	44.987630031671	59
1	270	47.313061055308	60
1	270	47.313061055308	61
1	270	47.313061055308	62
1	283	49.266352024318	63
1	283	49.266352024318	64
1	283	49.266352024318	65
1	299	50.681498994504	66
1	299	50.681498994504	67
1	299	50.681498994504	68
1	305	52.227954784814	69
1	305	52.227954784814	70
1	305	52.227954784814	71
1	311	53.993406803212	72
1	311	53.993406803212	73
1	311	53.993406803212	74
1	329	56.490739429339	75
1	329	56.490739429339	76
1	329	56.490739429339	77
1	342	57.911535520325	78
1	342	57.911535520325	79
1	342	57.911535520325	80
1	354	59.453267490186	81
1	354	59.453267490186	82
1	354	59.453267490186	83
1	370	67.050242822081	84
1	370	67.050242822081	85
1	370	67.050242822081	86
1	388	70.902887826102	87
1	388	70.902887826102	88
1	388	70.902887826102	89
1	408	74.999006933139	90
1	408	74.999006933139	91
1	408	74.999006933139	92
1	423	78.042846318985	93
1	423	78.042846318985	94
1	423	78.042846318985	95
1	436	81.705430111101	96
1	436	81.705430111101	97
1	436	81.705430111101	98
1	452	83.279163922283	99
1	452	83.279163922283	100
1	452	83.279163922283	101
1	468	85.214122360228	102
1	468	85.214122360228	103
1	468	85.214122360228	104
1	476	87.568492727605	105
1	476	87.568492727605	106
1	476	87.568492727605	107
1	490	90.086178620649	108
1	490	90.086178620649	109
1	490	90.086178620649	110
1	505	92.802962113637	111
1	505	92.802962113637	112
1	505	92.802962113637	113
1	523	96.24353689876	114
1	523	96.24353689876	115
1	523	96.24353689876	116
1	539	97.653209508384	117
1	539	97.653209508384	118
1	539	97.653209508384	119
1	552	98.704497120573	120
1	552	98.704497120573	121
1	552	98.704497120573	122
1	568	100.283642343895	123
1	568	100.283642343895	124
1	568	100.283642343895	125
1	584	101.717842105256	126
1	584	101.717842105256	127
1	584	101.717842105256	128
1	600	103.037038079744	129
1	600	103.037038079744	130
1	600	103.037038079744	131
1	618	105.669038922262	132
1	618	105.669038922262	133
1	618	105.669038922262	134
1	634	106.772930790584	135
1	634	106.772930790584	136
1	634	106.772930790584	137
1	647	108.53788319429	138
1	647	108.53788319429	139
1	647	108.53788319429	140
1	663	109.666438314586	141
1	663	109.666438314586	142
1	663	109.666438314586	143
1	678	112.970782923544	144
1	678	112.970782923544	145
1	678	112.970782923544	146
1	692	121.050230926391	147
1	692	121.050230926391	148
1	692	121.050230926391	149
1	701	122.604802564415	150
1	701	122.604802564415	151
1	701	122.604802564415	152
1	717	124.572133779218	153
1	717	124.572133779218	154
1	717	124.572133779218	155
1	733	126.322042747971	156
1	733	126.322042747971	157
1	733	126.322042747971	158
1	749	127.622292148055	159
1	749	127.622292148055	160
1	749	127.622292148055	161
1	767	131.182341459525	162
1	767	131.182341459525	163
1	767	131.182341459525	164
1	783	132.507979059148	165
1	783	132.507979059148	166
1	783	132.507979059148	167
1	807	139.565937815751	168
1	807	139.565937815751	169
1	807	139.565937815751	170
1	825	142.602568400998	171
1	825	142.602568400998	172
1	825	142.602568400998	173
1	833	145.562726996395	174
1	833	145.562726996395	175
1	833	145.562726996395	176
1	849	146.6262988765	177
1	849	146.6262988765	178
1	849	146.6262988765	179
1	857	149.863467645437	180
1	857	149.863467645437	181
1	857	149.863467645437	182
1	866	151.740362752076	183
1	866	151.740362752076	184
1	866	151.740362752076	185
1	879	153.697100216415	186
1	879	153.697100216415	187
1	879	153.697100216415	188
1	890	157.063492218438	189
1	890	157.063492218438	190
1	890	157.063492218438	191
1	896	158.834283647276	192
1	896	158.834283647276	193
1	896	158.834283647276	194
1	912	160.148784589068	195
1	912	160.148784589068	196
1	912	160.148784589068	197
1	921	161.437664465041	198
1	921	161.437664465041	199
1	921	161.437664465041	200
1	934	166.020552665615	201
1	934	166.020552665615	202
1	934	166.020552665615	203
1	945	169.913799522532	204
1	945	169.913799522532	205
1	945	169.913799522532	206
1	961	171.22058457302	207
1	961	171.22058457302	208
1	961	171.22058457302	209
1	970	172.442406917352	210
1	970	172.442406917352	211
1	970	172.442406917352	212
1	986	174.344132620566	213
1	986	174.344132620566	214
1	986	174.344132620566	215
1	996	179.03653301984	216
1	996	179.03653301984	217
1	996	179.03653301984	218
1	1016	184.268231596146	219
1	1016	184.268231596146	220
1	1016	184.268231596146	221
1	1032	186.030840920887	222
1	1032	186.030840920887	223
1	1032	186.030840920887	224
1	1041	187.62891354302	225
1	1041	187.62891354302	226
1	1041	187.62891354302	227
1	1057	188.692682890659	228
1	1057	188.692682890659	229
1	1057	188.692682890659	230
1	1073	190.146245736764	231
1	1073	190.146245736764	232
1	1073	190.146245736764	233
1	1085	191.835632563896	234
1	1085	191.835632563896	235
1	1085	191.835632563896	236
1	1094	193.071320116832	237
1	1094	193.071320116832	238
1	1094	193.071320116832	239
1	1110	194.184049659989	240
1	1110	194.184049659989	241
1	1110	194.184049659989	242
1	1120	198.352536939122	243
1	1120	198.352536939122	244
1	1120	198.352536939122	245
1	1129	199.439844793569	246
1	1129	199.439844793569	247
1	1129	199.439844793569	248
1	1145	200.69202511194	249
1	1145	200.69202511194	250
1	1145	200.69202511194	251
1	1154	201.760677903694	252
1	1154	201.760677903694	253
1	1154	201.760677903694	254
1	1172	203.965513533561	255
1	1172	203.965513533561	256
1	1172	203.965513533561	257
1	1188	205.006610126453	258
1	1188	205.006610126453	259
1	1188	205.006610126453	260
1	1199	207.875053000046	261
1	1199	207.875053000046	262
1	1199	207.875053000046	263
1	1211	209.365570056311	264
1	1211	209.365570056311	265
1	1211	209.365570056311	266
1	1217	210.663329062058	267
1	1217	210.663329062058	268
1	1217	210.663329062058	269
1	1225	213.955771172548	270
1	1225	213.955771172548	271
1	1225	213.955771172548	272
1	1238	214.998009898529	273
1	1238	214.998009898529	274
1	1238	214.998009898529	275
1	1248	219.089846116817	276
1	1248	219.089846116817	277
1	1248	219.089846116817	278
1	1254	220.957864987373	279
1	1254	220.957864987373	280
1	1254	220.957864987373	281
1	1263	222.237227448568	282
1	1263	222.237227448568	283
1	1263	222.237227448568	284
1	1271	225.156578760047	285
1	1271	225.156578760047	286
1	1271	225.156578760047	287
1	1287	227.051212407115	288
1	1287	227.051212407115	289
1	1287	227.051212407115	290
1	1293	228.179223245355	291
1	1293	228.179223245355	292
1	1293	228.179223245355	293
1	1305	229.397498541043	294
1	1305	229.397498541043	295
1	1305	229.397498541043	296
1	1314	230.980072335188	297
1	1314	230.980072335188	298
1	1314	230.980072335188	299
1	1331	235.560576746616	300
1	1331	235.560576746616	301
1	1331	235.560576746616	302
1	1344	236.789411487652	303
1	1344	236.789411487652	304
1	1344	236.789411487652	305
1	1352	239.472532434197	306
1	1352	239.472532434197	307
1	1352	239.472532434197	308
2	7	0.227595799025	0
2	7	0.227595799025	1
2	43	5.621683244542	2
2	43	5.621683244542	3
2	60	8.268440048673	4
2	60	8.268440048673	5
2	101	19.939282249002	6
2	101	19.939282249002	7
2	123	22.666057555933	8
2	123	22.666057555933	9
2	132	24.536600352956	10
2	132	24.536600352956	11
2	155	29.096248751317	12
2	155	29.096248751317	13
2	167	32.747117970217	14
2	167	32.747117970217	15
2	197	37.215244541317	16
2	197	37.215244541317	17
2	216	39.186552208881	18
2	216	39.186552208881	19
2	229	40.382121166166	20
2	229	40.382121166166	21
2	245	41.839741866406	22
2	245	41.839741866406	23
2	263	45.041759315471	24
2	263	45.041759315471	25
2	274	47.324107193928	26
2	274	47.324107193928	27
2	287	49.289097841297	28
2	287	49.289097841297	29
2	315	54.007560842876	30
2	315	54.007560842876	31
2	349	57.951894902517	32
2	349	57.951894902517	33
2	375	67.065213167969	34
2	375	67.065213167969	35
2	399	70.942170037016	36
2	399	70.942170037016	37
2	412	75.01032201488	38
2	412	75.01032201488	39
2	443	81.741357762328	40
2	443	81.741357762328	41
2	463	83.330691842916	42
2	463	83.330691842916	43
2	483	87.598850872937	44
2	483	87.598850872937	45
2	510	92.817074629283	46
2	510	92.817074629283	47
2	528	96.262305672947	48
2	528	96.262305672947	49
2	557	98.721248939058	50
2	557	98.721248939058	51
2	572	100.296103468059	52
2	572	100.296103468059	53
2	588	101.728347933097	54
2	588	101.728347933097	55
2	604	103.053517005044	56
2	604	103.053517005044	57
2	622	105.68026770456	58
2	622	105.68026770456	59
2	655	108.566736843162	60
2	655	108.566736843162	61
2	712	122.648543042931	62
2	712	122.648543042931	63
2	721	124.600623968587	64
2	721	124.600623968587	65
2	737	126.335709210235	66
2	737	126.335709210235	67
2	753	127.642367744913	68
2	753	127.642367744913	69
2	772	131.195739624682	70
2	772	131.195739624682	71
2	791	132.551051258391	72
2	791	132.551051258391	73
2	818	139.607226192034	74
2	818	139.607226192034	75
2	837	145.575344101488	76
2	837	145.575344101488	77
2	861	149.873940385983	78
2	861	149.873940385983	79
2	870	151.768904545616	80
2	870	151.768904545616	81
2	900	158.844789657937	82
2	900	158.844789657937	83
2	938	166.03737544194	84
2	938	166.03737544194	85
2	950	169.930379212046	86
2	950	169.930379212046	87
2	981	172.483250651933	88
2	981	172.483250651933	89
2	1003	179.081953671219	90
2	1003	179.081953671219	91
2	1027	184.333834684801	92
2	1027	184.333834684801	93
2	1036	186.04556299135	94
2	1036	186.04556299135	95
2	1045	187.63910099805	96
2	1045	187.63910099805	97
2	1061	188.703398895829	98
2	1061	188.703398895829	99
2	1078	190.158182739506	100
2	1078	190.158182739506	101
2	1101	193.100847346008	102
2	1101	193.100847346008	103
2	1133	199.45639435151	104
2	1133	199.45639435151	105
2	1159	201.783692156115	106
2	1159	201.783692156115	107
2	1183	204.016211514425	108
2	1183	204.016211514425	109
2	1203	207.896387600229	110
2	1203	207.896387600229	111
2	1229	213.969032970096	112
2	1229	213.969032970096	113
2	1258	221.014457231893	114
2	1258	221.014457231893	115
2	1276	225.168760891433	116
2	1276	225.168760891433	117
2	1298	228.195444639088	118
2	1298	228.195444639088	119
2	1309	229.427252469595	120
2	1309	229.427252469595	121
2	1359	239.495252706148	122
2	1359	239.495252706148	123
3	8	0.228177698444	0
3	8	0.228177698444	1
3	29	4.023811308844	2
3	29	4.023811308844	3
3	42	5.621469392631	4
3	42	5.621469392631	5
3	61	8.273937351274	6
3	61	8.273937351274	7
3	86	17.172557798147	8
3	86	17.172557798147	9
3	110	20.995939796781	10
3	110	20.995939796781	11
3	133	24.537534387784	12
3	133	24.537534387784	13
3	148	29.064937200583	14
3	148	29.064937200583	15
3	166	32.738521679344	16
3	166	32.738521679344	17
3	182	33.796814640015	18
3	182	33.796814640015	19
3	198	37.219151655032	20
3	198	37.219151655032	21
3	213	39.174215676857	22
3	213	39.174215676857	23
3	236	40.436162187082	24
3	236	40.436162187082	25
3	256	45.010607850325	26
3	256	45.010607850325	27
3	290	49.302363094127	28
3	290	49.302363094127	29
3	316	54.015061418649	30
3	316	54.015061418649	31
3	333	56.535372539404	32
3	333	56.535372539404	33
3	346	57.926731049017	34
3	346	57.926731049017	35
3	374	67.064988482551	36
3	374	67.064988482551	37
3	392	70.917681649058	38
3	392	70.917681649058	39
3	427	78.057495822549	40
3	427	78.057495822549	41
3	440	81.718895387982	42
3	440	81.718895387982	43
3	456	83.294091329262	44
3	456	83.294091329262	45
3	480	87.58052025607	46
3	480	87.58052025607	47
3	494	90.107049063189	48
3	494	90.107049063189	49
3	509	92.814798099883	50
3	509	92.814798099883	51
3	527	96.253752504851	52
3	527	96.253752504851	53
3	543	97.667599778449	54
3	543	97.667599778449	55
3	556	98.717255035453	56
3	556	98.717255035453	57
3	579	100.330523124674	58
3	579	100.330523124674	59
3	589	101.729045232767	60
3	589	101.729045232767	61
3	611	103.08499850703	62
3	611	103.08499850703	63
3	629	105.742810854849	64
3	629	105.742810854849	65
3	638	106.788239651116	66
3	638	106.788239651116	67
3	651	108.548539650952	68
3	651	108.548539650952	69
3	667	109.678205736888	70
3	667	109.678205736888	71
3	696	121.105749490656	72
3	696	121.105749490656	73
3	705	122.620795631293	74
3	705	122.620795631293	75
3	728	124.636016084456	76
3	728	124.636016084456	77
3	744	126.376652614215	78
3	744	126.376652614215	79
3	754	127.64251338645	80
3	754	127.64251338645	81
3	771	131.193193923655	82
3	771	131.193193923655	83
3	787	132.534621348275	84
3	787	132.534621348275	85
3	811	139.577234776357	86
3	811	139.577234776357	87
3	838	145.578515796245	88
3	838	145.578515796245	89
3	883	153.711310374484	90
3	883	153.711310374484	91
3	903	158.859222111954	92
3	903	158.859222111954	93
3	916	160.171378576315	94
3	916	160.171378576315	95
3	925	161.456209368736	96
3	925	161.456209368736	97
3	949	169.928423435378	98
3	949	169.928423435378	99
3	965	171.232734082238	100
3	965	171.232734082238	101
3	974	172.45361820133	102
3	974	172.45361820133	103
3	1000	179.061750716666	104
3	1000	179.061750716666	105
3	1020	184.295071149454	106
3	1020	184.295071149454	107
3	1046	187.645304568385	108
3	1046	187.645304568385	109
3	1062	188.704112223473	110
3	1062	188.704112223473	111
3	1077	190.156651972239	112
3	1077	190.156651972239	113
3	1089	191.853741297413	114
3	1089	191.853741297413	115
3	1098	193.083511981808	116
3	1098	193.083511981808	117
3	1124	198.363019031186	118
3	1124	198.363019031186	119
3	1140	199.498683619561	120
3	1140	199.498683619561	121
3	1149	200.71476887793	122
3	1149	200.71476887793	123
3	1158	201.783558421339	124
3	1158	201.783558421339	125
3	1176	203.98946542527	126
3	1176	203.98946542527	127
3	1192	205.035124756421	128
3	1192	205.035124756421	129
3	1204	207.896667355719	130
3	1204	207.896667355719	131
3	1275	225.167919636657	132
3	1275	225.167919636657	133
3	1297	228.18969558466	134
3	1297	228.18969558466	135
3	1318	231.003941779177	136
3	1318	231.003941779177	137
3	1335	235.591680032955	138
3	1335	235.591680032955	139
3	1356	239.484485453852	140
3	1356	239.484485453852	141
4	13	0.240720247832	0
4	13	0.240720247832	1
4	13	0.240720247832	2
4	32	4.033901575974	3
4	32	4.033901575974	4
4	32	4.033901575974	5
4	48	5.651590160097	6
4	48	5.651590160097	7
4	48	5.651590160097	8
4	66	8.285815138929	9
4	66	8.285815138929	10
4	66	8.285815138929	11
4	113	21.03532840752	12
4	113	21.03532840752	13
4	113	21.03532840752	14
4	151	29.076714980192	15
4	151	29.076714980192	16
4	151	29.076714980192	17
4	172	32.763807153765	18
4	172	32.763807153765	19
4	172	32.763807153765	20
4	203	37.230345239067	21
4	203	37.230345239067	22
4	203	37.230345239067	23
4	219	39.197978911757	24
4	219	39.197978911757	25
4	219	39.197978911757	26
4	232	40.397374245761	27
4	232	40.397374245761	28
4	232	40.397374245761	29
4	259	45.020776440112	30
4	259	45.020776440112	31
4	259	45.020776440112	32
4	277	47.361579341206	33
4	277	47.361579341206	34
4	277	47.361579341206	35
4	293	49.321934667818	36
4	293	49.321934667818	37
4	293	49.321934667818	38
4	321	54.07709863113	39
4	321	54.07709863113	40
4	321	54.07709863113	41
4	336	56.546281809145	42
4	336	56.546281809145	43
4	336	56.546281809145	44
4	380	67.092632633355	45
4	380	67.092632633355	46
4	380	67.092632633355	47
4	395	70.930365386826	48
4	395	70.930365386826	49
4	395	70.930365386826	50
4	415	75.04022512797	51
4	415	75.04022512797	52
4	415	75.04022512797	53
4	446	81.764694791675	54
4	446	81.764694791675	55
4	446	81.764694791675	56
4	459	83.312082524205	57
4	459	83.312082524205	58
4	459	83.312082524205	59
4	497	90.124078207493	60
4	497	90.124078207493	61
4	497	90.124078207493	62
4	515	92.829192792262	63
4	515	92.829192792262	64
4	515	92.829192792262	65
4	533	96.274696420145	66
4	533	96.274696420145	67
4	533	96.274696420145	68
4	546	97.680411106083	69
4	546	97.680411106083	70
4	546	97.680411106083	71
4	562	98.732811019493	72
4	562	98.732811019493	73
4	562	98.732811019493	74
4	575	100.307418421387	75
4	575	100.307418421387	76
4	575	100.307418421387	77
4	594	101.743539122425	78
4	594	101.743539122425	79
4	594	101.743539122425	80
4	607	103.07381550266	81
4	607	103.07381550266	82
4	607	103.07381550266	83
4	625	105.714217174196	84
4	625	105.714217174196	85
4	625	105.714217174196	86
4	641	106.799719175277	87
4	641	106.799719175277	88
4	641	106.799719175277	89
4	654	108.563612102062	90
4	654	108.563612102062	91
4	654	108.563612102062	92
4	670	109.693578157158	93
4	670	109.693578157158	94
4	670	109.693578157158	95
4	708	122.637328894342	96
4	708	122.637328894342	97
4	708	122.637328894342	98
4	724	124.617516175762	99
4	724	124.617516175762	100
4	724	124.617516175762	101
4	740	126.350381889233	102
4	740	126.350381889233	103
4	740	126.350381889233	104
4	759	127.689701371215	105
4	759	127.689701371215	106
4	759	127.689701371215	107
4	775	131.205637839423	108
4	775	131.205637839423	109
4	775	131.205637839423	110
4	790	132.547705571196	111
4	790	132.547705571196	112
4	790	132.547705571196	113
4	814	139.594524595215	114
4	814	139.594524595215	115
4	814	139.594524595215	116
4	843	145.588737515612	117
4	843	145.588737515612	118
4	843	145.588737515612	119
4	873	151.781745464701	120
4	873	151.781745464701	121
4	873	151.781745464701	122
4	904	158.866339225754	123
4	904	158.866339225754	124
4	904	158.866339225754	125
4	953	169.939138770423	126
4	953	169.939138770423	127
4	953	169.939138770423	128
4	977	172.469883934583	129
4	977	172.469883934583	130
4	977	172.469883934583	131
4	1004	179.087816452526	132
4	1004	179.087816452526	133
4	1004	179.087816452526	134
4	1023	184.323422734067	135
4	1023	184.323422734067	136
4	1023	184.323422734067	137
4	1049	187.654399396439	138
4	1049	187.654399396439	139
4	1049	187.654399396439	140
4	1067	188.720159154124	141
4	1067	188.720159154124	142
4	1067	188.720159154124	143
4	1102	193.102665175067	144
4	1102	193.102665175067	145
4	1102	193.102665175067	146
4	1136	199.481993805364	147
4	1136	199.481993805364	148
4	1136	199.481993805364	149
4	1164	201.812222478306	150
4	1164	201.812222478306	151
4	1164	201.812222478306	152
4	1179	204.001288373152	153
4	1179	204.001288373152	154
4	1179	204.001288373152	155
4	1232	213.983466241279	156
4	1232	213.983466241279	157
4	1232	213.983466241279	158
4	1281	225.186396577819	159
4	1281	225.186396577819	160
4	1281	225.186396577819	161
4	1321	231.017466034988	162
4	1321	231.017466034988	163
4	1321	231.017466034988	164
4	1338	235.617668254263	165
4	1338	235.617668254263	166
4	1338	235.617668254263	167
4	1362	239.506707207624	168
4	1362	239.506707207624	169
4	1362	239.506707207624	170
5	116	21.04532840752	0
5	154	29.086714980192	1
5	175	32.773807153765	2
5	206	37.240345239067	3
5	262	45.030776440112	4
5	280	47.371579341206	5
5	296	49.331934667818	6
5	339	56.556281809145	7
5	383	67.102632633355	8
5	398	70.940365386826	9
5	418	75.05022512797	10
5	449	81.774694791675	11
5	462	83.322082524205	12
5	500	90.134078207493	13
5	518	92.839192792262	14
5	536	96.284696420145	15
5	578	100.317418421387	16
5	597	101.753539122425	17
5	644	106.809719175277	18
5	658	108.573612102062	19
5	673	109.703578157158	20
5	711	122.647328894342	21
5	727	124.627516175762	22
5	743	126.360381889233	23
5	780	131.215637839423	24
5	794	132.557705571196	25
5	817	139.604524595215	26
5	958	169.949138770423	27
5	980	172.479883934583	28
5	1026	184.333422734067	29
5	1054	187.664399396439	30
5	1070	188.730159154124	31
5	1139	199.491993805364	32
5	1182	204.011288373152	33
5	1324	231.027466034988	34
5	1341	235.627668254263	35
5	1365	239.516707207624	36

