version 2
run General-2-20231008-05:37:12-14406
attr configname General
attr datetime 20231008-05:37:12
attr experiment General
attr inifile omnetpp.ini
attr iterationvars ""
attr iterationvarsf ""
attr measurement ""
attr network Reliability
attr processid 14406
attr repetition 2
attr replication #2
attr resultdir results
attr runnumber 2
attr seedset 2
param Reliability.node[*].transmissionTime "uniform(1s, 2s)"
param Reliability.node[*].delayTime "uniform(0.01s, 0.2s)"
param Reliability.node[*].processingTime exponential(0.01s)
param Reliability.node[*].lossProbability 0.4

vector 0 Reliability.node[0] txVector ETV
vector 1 Reliability.node[1] txVector ETV
vector 2 Reliability.node[2] txVector ETV
vector 3 Reliability.node[3] txVector ETV
vector 4 Reliability.node[4] txVector ETV
vector 5 Reliability.node[5] rxVector ETV
0	1	0.092839031499	0
0	3	1.277921112972	1
0	12	3.20946197656	2
0	28	4.414110612609	3
0	44	5.598550475454	4
0	46	7.026672806609	5
0	48	8.123203728133	6
0	54	9.250363699877	7
0	60	10.357309384522	8
0	62	11.825096869626	9
0	78	13.02684009659	10
0	90	14.727592440107	11
0	106	16.155138404359	12
0	115	18.005988906388	13
0	131	19.894292652857	14
0	133	21.217166869918	15
0	135	22.979096868791	16
0	147	24.911725429602	17
0	153	26.305658720916	18
0	155	28.034157223318	19
0	164	29.389910847198	20
0	180	31.052112869236	21
0	196	32.365371392125	22
0	212	33.535848524205	23
0	214	34.756686441151	24
0	230	36.675145081959	25
0	246	38.501394908658	26
0	252	39.688022052652	27
0	254	40.698272093913	28
0	256	42.327631820474	29
0	258	43.622804126252	30
0	267	44.810090670378	31
0	276	46.083928539899	32
0	292	47.132796626321	33
0	294	48.931682140582	34
0	303	49.962929701914	35
0	305	51.897965429832	36
0	314	53.288551109859	37
0	316	54.683701869582	38
0	332	56.352128918997	39
0	334	57.800143633286	40
0	350	59.007193467828	41
0	352	60.715164642331	42
0	354	62.492752554376	43
0	356	64.269855558189	44
0	372	65.772634305774	45
0	378	67.217205246926	46
0	384	68.242406670485	47
0	390	69.904374458377	48
0	406	71.292708636277	49
0	422	72.297372157002	50
0	428	74.113391311389	51
0	430	75.321893805886	52
0	432	77.18927534741	53
0	448	78.981605563794	54
0	450	80.024734600696	55
0	466	81.131922000802	56
0	478	82.360532251435	57
0	480	84.215651918917	58
0	496	85.596444499928	59
0	502	87.386688298329	60
0	504	89.225590895877	61
0	513	90.687329798952	62
0	515	92.660881115139	63
0	517	93.903218618144	64
0	529	95.10983736931	65
0	545	96.446130340236	66
0	561	97.664037661643	67
0	574	99.196422567607	68
0	576	100.819807283829	69
0	578	102.17302117964	70
0	590	103.337799802439	71
0	603	104.598519820271	72
0	605	106.27794123303	73
0	607	107.751834139944	74
0	616	109.326280482131	75
0	632	110.57756339807	76
0	648	111.914931688243	77
0	654	113.272449919274	78
0	660	114.526676609432	79
0	662	115.729325662851	80
0	675	116.792227198621	81
0	688	118.71327133595	82
0	697	120.402523210989	83
0	703	122.379067766033	84
0	719	124.030561605953	85
0	721	125.316425017799	86
0	737	126.947692414998	87
0	743	128.88176223754	88
0	749	130.601978883399	89
0	751	132.243551752549	90
0	753	133.441551643443	91
0	755	134.643451146102	92
0	761	136.550510578575	93
0	763	138.331268100785	94
0	765	139.413147473028	95
0	777	140.902600945458	96
0	789	142.437343936665	97
0	791	143.568208408328	98
0	807	144.782149452735	99
0	809	146.336075691758	100
0	818	148.080950844819	101
0	827	149.887286056318	102
0	829	151.068054385503	103
0	845	152.15670369614	104
0	851	154.136867267099	105
0	867	155.777514928506	106
0	883	156.982057158389	107
0	885	158.359780146294	108
0	898	159.882538203635	109
0	900	161.545173410346	110
0	916	162.606327174484	111
0	932	163.977562272708	112
0	934	165.928856028496	113
0	936	167.083791549802	114
0	952	168.149502225937	115
0	954	169.725656577637	116
0	970	170.910836770683	117
0	972	172.565078705102	118
0	988	174.158819074994	119
0	997	175.855440193107	120
0	1013	176.994699203428	121
0	1022	178.390281195771	122
0	1038	180.234373284755	123
0	1040	181.943735218392	124
0	1042	183.390020188893	125
0	1044	184.62328454947	126
0	1046	185.862050047395	127
0	1048	187.55522330596	128
0	1057	189.202992782014	129
0	1059	190.525949422753	130
0	1068	192.352746903215	131
0	1070	193.455496181518	132
0	1072	194.929801301815	133
0	1074	196.220259571931	134
0	1076	197.529656856338	135
0	1078	198.772615948244	136
0	1084	200.726307492255	137
0	1086	202.221569656412	138
0	1098	203.921767402225	139
0	1100	205.381239465223	140
0	1102	206.518201817311	141
0	1111	207.945579282026	142
0	1120	209.387582348678	143
0	1122	210.568703796966	144
0	1135	212.444125136379	145
0	1137	213.625682066912	146
0	1150	215.115425921064	147
0	1166	216.35369982875	148
0	1182	217.596418945138	149
0	1184	219.563772249986	150
0	1186	221.37975179825	151
0	1202	223.371677036882	152
0	1204	224.506623871644	153
0	1213	226.149402575354	154
0	1229	227.627186657648	155
0	1231	229.506401145851	156
0	1240	231.251277402296	157
0	1253	232.7810812765	158
0	1255	234.175432861337	159
0	1264	235.328853650737	160
0	1270	236.653248716399	161
0	1286	238.294426025843	162
1	5	1.317434556699	0
1	5	1.317434556699	1
1	5	1.317434556699	2
1	14	3.229118650211	3
1	14	3.229118650211	4
1	14	3.229118650211	5
1	30	4.439497385537	6
1	30	4.439497385537	7
1	30	4.439497385537	8
1	50	8.142285597399	9
1	50	8.142285597399	10
1	50	8.142285597399	11
1	56	9.262852239962	12
1	56	9.262852239962	13
1	56	9.262852239962	14
1	64	11.845324686444	15
1	64	11.845324686444	16
1	64	11.845324686444	17
1	80	13.070236722171	18
1	80	13.070236722171	19
1	80	13.070236722171	20
1	92	14.743332708498	21
1	92	14.743332708498	22
1	92	14.743332708498	23
1	108	16.170351795468	24
1	108	16.170351795468	25
1	108	16.170351795468	26
1	117	18.044323901724	27
1	117	18.044323901724	28
1	117	18.044323901724	29
1	137	23.001517674512	30
1	137	23.001517674512	31
1	137	23.001517674512	32
1	149	24.947836490693	33
1	149	24.947836490693	34
1	149	24.947836490693	35
1	157	28.046551645402	36
1	157	28.046551645402	37
1	157	28.046551645402	38
1	166	29.404813293059	39
1	166	29.404813293059	40
1	166	29.404813293059	41
1	182	31.06253983285	42
1	182	31.06253983285	43
1	182	31.06253983285	44
1	198	32.396712669897	45
1	198	32.396712669897	46
1	198	32.396712669897	47
1	216	34.775653395276	48
1	216	34.775653395276	49
1	216	34.775653395276	50
1	232	36.694915132548	51
1	232	36.694915132548	52
1	232	36.694915132548	53
1	248	38.512566801169	54
1	248	38.512566801169	55
1	248	38.512566801169	56
1	260	43.633805512981	57
1	260	43.633805512981	58
1	260	43.633805512981	59
1	269	44.820358054915	60
1	269	44.820358054915	61
1	269	44.820358054915	62
1	278	46.096569735191	63
1	278	46.096569735191	64
1	278	46.096569735191	65
1	296	48.944290257648	66
1	296	48.944290257648	67
1	296	48.944290257648	68
1	307	51.932117987673	69
1	307	51.932117987673	70
1	307	51.932117987673	71
1	318	54.695908674381	72
1	318	54.695908674381	73
1	318	54.695908674381	74
1	336	57.815683875457	75
1	336	57.815683875457	76
1	336	57.815683875457	77
1	358	64.31126258318	78
1	358	64.31126258318	79
1	358	64.31126258318	80
1	374	65.795213214751	81
1	374	65.795213214751	82
1	374	65.795213214751	83
1	380	67.255414720017	84
1	380	67.255414720017	85
1	380	67.255414720017	86
1	386	68.255737074266	87
1	386	68.255737074266	88
1	386	68.255737074266	89
1	392	69.940398071384	90
1	392	69.940398071384	91
1	392	69.940398071384	92
1	408	71.308118671348	93
1	408	71.308118671348	94
1	408	71.308118671348	95
1	424	72.308780820508	96
1	424	72.308780820508	97
1	424	72.308780820508	98
1	434	77.203567828995	99
1	434	77.203567828995	100
1	434	77.203567828995	101
1	452	80.040445376804	102
1	452	80.040445376804	103
1	452	80.040445376804	104
1	468	81.151766196695	105
1	468	81.151766196695	106
1	468	81.151766196695	107
1	482	84.227615837639	108
1	482	84.227615837639	109
1	482	84.227615837639	110
1	498	85.620813441954	111
1	498	85.620813441954	112
1	498	85.620813441954	113
1	506	89.236935143929	114
1	506	89.236935143929	115
1	506	89.236935143929	116
1	519	93.918742203882	117
1	519	93.918742203882	118
1	519	93.918742203882	119
1	531	95.12504913326	120
1	531	95.12504913326	121
1	531	95.12504913326	122
1	547	96.474146369043	123
1	547	96.474146369043	124
1	547	96.474146369043	125
1	563	97.679192609015	126
1	563	97.679192609015	127
1	563	97.679192609015	128
1	580	102.205385987501	129
1	580	102.205385987501	130
1	580	102.205385987501	131
1	592	103.352952121029	132
1	592	103.352952121029	133
1	592	103.352952121029	134
1	609	107.767218047159	135
1	609	107.767218047159	136
1	609	107.767218047159	137
1	618	109.35758659276	138
1	618	109.35758659276	139
1	618	109.35758659276	140
1	634	110.617931170072	141
1	634	110.617931170072	142
1	634	110.617931170072	143
1	650	111.925026641354	144
1	650	111.925026641354	145
1	650	111.925026641354	146
1	656	113.284321477852	147
1	656	113.284321477852	148
1	656	113.284321477852	149
1	664	115.74035663135	150
1	664	115.74035663135	151
1	664	115.74035663135	152
1	677	116.806421409011	153
1	677	116.806421409011	154
1	677	116.806421409011	155
1	690	118.733614372862	156
1	690	118.733614372862	157
1	690	118.733614372862	158
1	699	120.419333583443	159
1	699	120.419333583443	160
1	699	120.419333583443	161
1	705	122.390120981652	162
1	705	122.390120981652	163
1	705	122.390120981652	164
1	723	125.332948531926	165
1	723	125.332948531926	166
1	723	125.332948531926	167
1	739	126.960327872084	168
1	739	126.960327872084	169
1	739	126.960327872084	170
1	745	128.904176239123	171
1	745	128.904176239123	172
1	745	128.904176239123	173
1	757	134.662123139739	174
1	757	134.662123139739	175
1	757	134.662123139739	176
1	767	139.436148840889	177
1	767	139.436148840889	178
1	767	139.436148840889	179
1	779	140.928006635591	180
1	779	140.928006635591	181
1	779	140.928006635591	182
1	793	143.583068257951	183
1	793	143.583068257951	184
1	793	143.583068257951	185
1	811	146.369446387203	186
1	811	146.369446387203	187
1	811	146.369446387203	188
1	820	148.091299611376	189
1	820	148.091299611376	190
1	820	148.091299611376	191
1	831	151.081234503265	192
1	831	151.081234503265	193
1	831	151.081234503265	194
1	847	152.169912822567	195
1	847	152.169912822567	196
1	847	152.169912822567	197
1	853	154.157876209039	198
1	853	154.157876209039	199
1	853	154.157876209039	200
1	869	155.789311369966	201
1	869	155.789311369966	202
1	869	155.789311369966	203
1	887	158.370992432701	204
1	887	158.370992432701	205
1	887	158.370992432701	206
1	902	161.559837852803	207
1	902	161.559837852803	208
1	902	161.559837852803	209
1	918	162.644527760683	210
1	918	162.644527760683	211
1	918	162.644527760683	212
1	938	167.097608303538	213
1	938	167.097608303538	214
1	938	167.097608303538	215
1	956	169.775874238519	216
1	956	169.775874238519	217
1	956	169.775874238519	218
1	974	172.582876145443	219
1	974	172.582876145443	220
1	974	172.582876145443	221
1	990	174.173723408801	222
1	990	174.173723408801	223
1	990	174.173723408801	224
1	999	175.869486443908	225
1	999	175.869486443908	226
1	999	175.869486443908	227
1	1015	177.015756695685	228
1	1015	177.015756695685	229
1	1015	177.015756695685	230
1	1024	178.402475453672	231
1	1024	178.402475453672	232
1	1024	178.402475453672	233
1	1050	187.565883903819	234
1	1050	187.565883903819	235
1	1050	187.565883903819	236
1	1061	190.551473360802	237
1	1061	190.551473360802	238
1	1061	190.551473360802	239
1	1080	198.787681136183	240
1	1080	198.787681136183	241
1	1080	198.787681136183	242
1	1088	202.248458273279	243
1	1088	202.248458273279	244
1	1088	202.248458273279	245
1	1104	206.529271971199	246
1	1104	206.529271971199	247
1	1104	206.529271971199	248
1	1113	207.980080601842	249
1	1113	207.980080601842	250
1	1113	207.980080601842	251
1	1124	210.582321903761	252
1	1124	210.582321903761	253
1	1124	210.582321903761	254
1	1139	213.656215247461	255
1	1139	213.656215247461	256
1	1139	213.656215247461	257
1	1152	215.139817029415	258
1	1152	215.139817029415	259
1	1152	215.139817029415	260
1	1168	216.409007539955	261
1	1168	216.409007539955	262
1	1168	216.409007539955	263
1	1188	221.393331151485	264
1	1188	221.393331151485	265
1	1188	221.393331151485	266
1	1206	224.520690674829	267
1	1206	224.520690674829	268
1	1206	224.520690674829	269
1	1215	226.16580059725	270
1	1215	226.16580059725	271
1	1215	226.16580059725	272
1	1233	229.517732462108	273
1	1233	229.517732462108	274
1	1233	229.517732462108	275
1	1242	231.280780945451	276
1	1242	231.280780945451	277
1	1242	231.280780945451	278
1	1257	234.185823942629	279
1	1257	234.185823942629	280
1	1257	234.185823942629	281
1	1266	235.34519814412	282
1	1266	235.34519814412	283
1	1266	235.34519814412	284
1	1272	236.670889020333	285
1	1272	236.670889020333	286
1	1272	236.670889020333	287
1	1288	238.308633716185	288
1	1288	238.308633716185	289
1	1288	238.308633716185	290
2	9	1.332888171871	0
2	9	1.332888171871	1
2	25	3.290761695925	2
2	25	3.290761695925	3
2	35	4.457398533831	4
2	35	4.457398533831	5
2	69	11.871079387652	6
2	69	11.871079387652	7
2	84	13.082686395847	8
2	84	13.082686395847	9
2	97	14.759640866148	10
2	97	14.759640866148	11
2	122	18.070431206727	12
2	122	18.070431206727	13
2	142	23.018529476887	14
2	142	23.018529476887	15
2	171	29.439402825402	16
2	171	29.439402825402	17
2	189	31.104204011992	18
2	189	31.104204011992	19
2	202	32.415268237826	20
2	202	32.415268237826	21
2	227	34.873187976897	22
2	227	34.873187976897	23
2	243	36.7428004565	24
2	243	36.7428004565	25
2	273	44.849008657282	26
2	273	44.849008657282	27
2	282	46.108333473183	28
2	282	46.108333473183	29
2	300	48.95447464759	30
2	300	48.95447464759	31
2	311	51.942797175767	32
2	311	51.942797175767	33
2	323	54.709060631902	34
2	323	54.709060631902	35
2	340	57.839304265804	36
2	340	57.839304265804	37
2	369	64.371197594892	38
2	369	64.371197594892	39
2	397	69.965083401454	40
2	397	69.965083401454	41
2	413	71.325866205697	42
2	413	71.325866205697	43
2	439	77.214905641168	44
2	439	77.214905641168	45
2	463	80.137389990522	46
2	463	80.137389990522	47
2	473	81.163683164247	48
2	473	81.163683164247	49
2	486	84.23963316099	50
2	486	84.23963316099	51
2	510	89.251822254573	52
2	510	89.251822254573	53
2	523	93.929656551778	54
2	523	93.929656551778	55
2	542	95.163843136733	56
2	542	95.163843136733	57
2	558	96.606553410085	58
2	558	96.606553410085	59
2	584	102.218082931969	60
2	584	102.218082931969	61
2	596	103.36449523897	62
2	596	103.36449523897	63
2	622	109.367888935078	64
2	622	109.367888935078	65
2	638	110.630400243775	66
2	638	110.630400243775	67
2	668	115.766239036778	68
2	668	115.766239036778	69
2	681	116.820330058851	70
2	681	116.820330058851	71
2	716	122.427453811041	72
2	716	122.427453811041	73
2	728	125.346994586014	74
2	728	125.346994586014	75
2	771	139.447918401986	76
2	771	139.447918401986	77
2	784	140.947095233287	78
2	784	140.947095233287	79
2	797	143.594029363556	80
2	797	143.594029363556	81
2	835	151.115261863139	82
2	835	151.115261863139	83
2	857	154.168913716181	84
2	857	154.168913716181	85
2	880	155.87032530011	86
2	880	155.87032530011	87
2	891	158.383324056155	88
2	891	158.383324056155	89
2	906	161.57261558118	90
2	906	161.57261558118	91
2	923	162.665187284974	92
2	923	162.665187284974	93
2	942	167.108668427317	94
2	942	167.108668427317	95
2	960	169.786004794009	96
2	960	169.786004794009	97
2	982	172.610573924063	98
2	982	172.610573924063	99
2	1003	175.881766448229	100
2	1003	175.881766448229	101
2	1028	178.417411254732	102
2	1028	178.417411254732	103
2	1054	187.584469871328	104
2	1054	187.584469871328	105
2	1093	202.266210920001	106
2	1093	202.266210920001	107
2	1156	215.151307582276	108
2	1156	215.151307582276	109
2	1172	216.428395737158	110
2	1172	216.428395737158	111
2	1195	221.430898163476	112
2	1195	221.430898163476	113
2	1210	224.53460072267	114
2	1210	224.53460072267	115
2	1219	226.179716710378	116
2	1219	226.179716710378	117
2	1237	229.530176255171	118
2	1237	229.530176255171	119
2	1261	234.211041618254	120
2	1261	234.211041618254	121
2	1276	236.682775975746	122
2	1276	236.682775975746	123
2	1292	238.33084500591	124
2	1292	238.33084500591	125
3	18	3.242222389867	0
3	18	3.242222389867	1
3	34	4.454728186789	2
3	34	4.454728186789	3
3	68	11.866203243793	4
3	68	11.866203243793	5
3	87	13.130243015259	6
3	87	13.130243015259	7
3	96	14.756537147836	8
3	96	14.756537147836	9
3	112	16.183191050001	10
3	112	16.183191050001	11
3	121	18.063532340503	12
3	121	18.063532340503	13
3	141	23.015426513589	14
3	141	23.015426513589	15
3	161	28.077613631914	16
3	161	28.077613631914	17
3	170	29.432321465008	18
3	170	29.432321465008	19
3	186	31.088808325453	20
3	186	31.088808325453	21
3	209	32.456759066652	22
3	209	32.456759066652	23
3	220	34.788715638178	24
3	220	34.788715638178	25
3	236	36.713861828078	26
3	236	36.713861828078	27
3	264	43.646225265339	28
3	264	43.646225265339	29
3	289	46.159982442759	30
3	289	46.159982442759	31
3	322	54.705934533532	32
3	322	54.705934533532	33
3	341	57.839715471384	34
3	341	57.839715471384	35
3	362	64.32782992874	36
3	362	64.32782992874	37
3	396	69.956221084023	38
3	396	69.956221084023	39
3	412	71.323761179799	40
3	412	71.323761179799	41
3	438	77.214339456339	42
3	438	77.214339456339	43
3	456	80.071699985446	44
3	456	80.071699985446	45
3	472	81.163375825468	46
3	472	81.163375825468	47
3	489	84.251282255501	48
3	489	84.251282255501	49
3	526	93.941320532505	50
3	526	93.941320532505	51
3	535	95.136428485542	52
3	535	95.136428485542	53
3	551	96.488695208338	54
3	551	96.488695208338	55
3	567	97.692476360291	56
3	567	97.692476360291	57
3	587	102.228369858939	58
3	587	102.228369858939	59
3	613	107.781232632169	60
3	613	107.781232632169	61
3	629	109.397501459971	62
3	629	109.397501459971	63
3	639	110.640131540202	64
3	639	110.640131540202	65
3	694	118.764841951964	66
3	694	118.764841951964	67
3	709	122.400653872942	68
3	709	122.400653872942	69
3	727	125.346606621159	70
3	727	125.346606621159	71
3	774	139.45799836023	72
3	774	139.45799836023	73
3	783	140.946511953134	74
3	783	140.946511953134	75
3	804	143.619671223676	76
3	804	143.619671223676	77
3	815	146.380899000685	78
3	815	146.380899000685	79
3	824	148.115090218372	80
3	824	148.115090218372	81
3	842	151.156978208632	82
3	842	151.156978208632	83
3	864	154.206651653026	84
3	864	154.206651653026	85
3	873	155.842281513893	86
3	873	155.842281513893	87
3	907	161.577276910645	88
3	907	161.577276910645	89
3	922	162.660644549268	90
3	922	162.660644549268	91
3	943	167.111254055004	92
3	943	167.111254055004	93
3	961	169.787209405654	94
3	961	169.787209405654	95
3	978	172.596693151562	96
3	978	172.596693151562	97
3	994	174.19461917877	98
3	994	174.19461917877	99
3	1010	175.931114998927	100
3	1010	175.931114998927	101
3	1019	177.040095774825	102
3	1019	177.040095774825	103
3	1035	178.451468679177	104
3	1035	178.451468679177	105
3	1065	190.562204341867	106
3	1065	190.562204341867	107
3	1092	202.258692068706	108
3	1092	202.258692068706	109
3	1108	206.557362191033	110
3	1108	206.557362191033	111
3	1117	207.993216923173	112
3	1117	207.993216923173	113
3	1128	210.593948597884	114
3	1128	210.593948597884	115
3	1143	213.678130936748	116
3	1143	213.678130936748	117
3	1157	215.153438374726	118
3	1157	215.153438374726	119
3	1173	216.430117007141	120
3	1173	216.430117007141	121
3	1192	221.414301818242	122
3	1192	221.414301818242	123
3	1226	226.220719539114	124
3	1226	226.220719539114	125
3	1246	231.291980627347	126
3	1246	231.291980627347	127
3	1277	236.68410121535	128
3	1277	236.68410121535	129
4	21	3.269272340808	0
4	21	3.269272340808	1
4	21	3.269272340808	2
4	40	4.474435481723	3
4	40	4.474435481723	4
4	40	4.474435481723	5
4	74	11.891984450978	6
4	74	11.891984450978	7
4	74	11.891984450978	8
4	102	14.774394338386	9
4	102	14.774394338386	10
4	102	14.774394338386	11
4	125	18.080091273644	12
4	125	18.080091273644	13
4	125	18.080091273644	14
4	176	29.450328296835	15
4	176	29.450328296835	16
4	176	29.450328296835	17
4	192	31.124527818283	18
4	192	31.124527818283	19
4	192	31.124527818283	20
4	205	32.430735155895	21
4	205	32.430735155895	22
4	205	32.430735155895	23
4	223	34.825186115963	24
4	223	34.825186115963	25
4	223	34.825186115963	26
4	239	36.727737862646	27
4	239	36.727737862646	28
4	239	36.727737862646	29
4	285	46.13644397572	30
4	285	46.13644397572	31
4	285	46.13644397572	32
4	328	54.719365448932	33
4	328	54.719365448932	34
4	328	54.719365448932	35
4	346	57.851511752354	36
4	346	57.851511752354	37
4	346	57.851511752354	38
4	365	64.359530368249	39
4	365	64.359530368249	40
4	365	64.359530368249	41
4	400	69.973176914575	42
4	400	69.973176914575	43
4	400	69.973176914575	44
4	418	71.352233883235	45
4	418	71.352233883235	46
4	418	71.352233883235	47
4	444	77.23802419874	48
4	444	77.23802419874	49
4	444	77.23802419874	50
4	459	80.083724633626	51
4	459	80.083724633626	52
4	459	80.083724633626	53
4	492	84.300648014108	54
4	492	84.300648014108	55
4	492	84.300648014108	56
4	538	95.152924312987	57
4	538	95.152924312987	58
4	538	95.152924312987	59
4	554	96.543669219721	60
4	554	96.543669219721	61
4	554	96.543669219721	62
4	570	97.712718980153	63
4	570	97.712718980153	64
4	570	97.712718980153	65
4	599	103.40343762915	66
4	599	103.40343762915	67
4	599	103.40343762915	68
4	625	109.380509671111	69
4	625	109.380509671111	70
4	625	109.380509671111	71
4	642	110.643244462716	72
4	642	110.643244462716	73
4	642	110.643244462716	74
4	671	115.785506004589	75
4	671	115.785506004589	76
4	671	115.785506004589	77
4	684	116.833618826379	78
4	684	116.833618826379	79
4	684	116.833618826379	80
4	712	122.410678728029	81
4	712	122.410678728029	82
4	712	122.410678728029	83
4	731	125.35692464499	84
4	731	125.35692464499	85
4	731	125.35692464499	86
4	800	143.606517845261	87
4	800	143.606517845261	88
4	800	143.606517845261	89
4	838	151.143355958296	90
4	838	151.143355958296	91
4	838	151.143355958296	92
4	860	154.187201690881	93
4	860	154.187201690881	94
4	860	154.187201690881	95
4	876	155.859867300637	96
4	876	155.859867300637	97
4	876	155.859867300637	98
4	894	158.399786477305	99
4	894	158.399786477305	100
4	894	158.399786477305	101
4	912	161.588972281141	102
4	912	161.588972281141	103
4	912	161.588972281141	104
4	928	162.691787940046	105
4	928	162.691787940046	106
4	928	162.691787940046	107
4	948	167.129693212843	108
4	948	167.129693212843	109
4	948	167.129693212843	110
4	966	169.799258071348	111
4	966	169.799258071348	112
4	966	169.799258071348	113
4	981	172.607625826412	114
4	981	172.607625826412	115
4	981	172.607625826412	116
4	1006	175.910209676415	117
4	1006	175.910209676415	118
4	1006	175.910209676415	119
4	1031	178.439951826206	120
4	1031	178.439951826206	121
4	1031	178.439951826206	122
4	1131	210.623918439613	123
4	1131	210.623918439613	124
4	1131	210.623918439613	125
4	1146	213.692022649438	126
4	1146	213.692022649438	127
4	1146	213.692022649438	128
4	1160	215.161363461252	129
4	1160	215.161363461252	130
4	1160	215.161363461252	131
4	1178	216.446322251488	132
4	1178	216.446322251488	133
4	1178	216.446322251488	134
4	1196	221.433076798163	135
4	1196	221.433076798163	136
4	1196	221.433076798163	137
4	1222	226.200975205766	138
4	1222	226.200975205766	139
4	1222	226.200975205766	140
4	1249	231.308987508424	141
4	1249	231.308987508424	142
4	1249	231.308987508424	143
4	1282	236.696572372596	144
4	1282	236.696572372596	145
4	1282	236.696572372596	146
4	1295	238.357417816603	147
4	1295	238.357417816603	148
4	1295	238.357417816603	149
5	24	3.279272340808	0
5	105	14.784394338386	1
5	130	18.090091273644	2
5	195	31.134527818283	3
5	226	34.835186115963	4
5	331	54.729365448932	5
5	368	64.369530368249	6
5	405	69.983176914575	7
5	447	77.24802419874	8
5	541	95.162924312987	9
5	557	96.553669219721	10
5	674	115.795506004589	11
5	687	116.843618826379	12
5	715	122.420678728029	13
5	736	125.36692464499	14
5	803	143.616517845261	15
5	841	151.153355958296	16
5	879	155.869867300637	17
5	915	161.598972281141	18
5	931	162.701787940046	19
5	1009	175.920209676415	20
5	1034	178.449951826206	21
5	1149	213.702022649438	22
5	1165	215.171363461252	23
5	1181	216.456322251488	24
5	1225	226.210975205766	25
5	1252	231.318987508424	26

