version 2
run General-1-20231008-05:37:12-14406
attr configname General
attr datetime 20231008-05:37:12
attr experiment General
attr inifile omnetpp.ini
attr iterationvars ""
attr iterationvarsf ""
attr measurement ""
attr network Reliability
attr processid 14406
attr repetition 1
attr replication #1
attr resultdir results
attr runnumber 1
attr seedset 1
param Reliability.node[*].transmissionTime "uniform(1s, 2s)"
param Reliability.node[*].delayTime "uniform(0.01s, 0.2s)"
param Reliability.node[*].processingTime exponential(0.01s)
param Reliability.node[*].lossProbability 0.4

vector 0 Reliability.node[0] txVector ETV
vector 1 Reliability.node[1] txVector ETV
vector 2 Reliability.node[3] txVector ETV
vector 3 Reliability.node[4] txVector ETV
vector 4 Reliability.node[5] rxVector ETV
vector 5 Reliability.node[2] txVector ETV
0	1	0.089234179703	0
0	7	2.086418987836	1
0	9	4.085459503231	2
0	11	5.321548479495	3
0	13	6.718129205636	4
0	15	8.106039945853	5
0	17	9.77578598622	6
0	30	11.711325058832	7
0	39	13.381792566392	8
0	55	15.160181801885	9
0	57	16.43323177926	10
0	73	17.492474976347	11
0	86	19.275789448877	12
0	88	21.065068781029	13
0	90	22.168294793114	14
0	99	23.616188317656	15
0	101	25.140987700669	16
0	117	26.224610705979	17
0	133	27.485589687366	18
0	149	28.625555807611	19
0	151	30.163980502289	20
0	167	31.816279380469	21
0	169	33.579512437692	22
0	182	34.936044154575	23
0	184	36.885533414435	24
0	186	38.335445547596	25
0	199	39.913835154966	26
0	201	41.066764977415	27
0	217	42.645398909346	28
0	233	44.196723848003	29
0	242	45.405292156273	30
0	244	46.431503143515	31
0	260	47.459809632627	32
0	276	49.045568900536	33
0	285	50.909110753219	34
0	287	52.062449237219	35
0	289	53.99963956315	36
0	291	55.916049436321	37
0	293	57.698007898991	38
0	302	59.314336841813	39
0	304	61.281613171453	40
0	306	62.849713634121	41
0	308	64.053006875216	42
0	310	65.305332621912	43
0	312	67.049158479207	44
0	324	68.244587959376	45
0	333	69.864543671374	46
0	349	70.904227173309	47
0	365	72.119877448659	48
0	367	73.282082959897	49
0	369	74.638546641803	50
0	385	75.733854453432	51
0	401	77.256591078247	52
0	410	79.18179118622	53
0	412	80.667781856264	54
0	414	82.272092345756	55
0	427	83.821640265061	56
0	429	84.900160234541	57
0	441	86.593345432662	58
0	443	87.698736682887	59
0	445	89.201812592688	60
0	458	91.087502453596	61
0	474	92.992894765575	62
0	476	94.58637617261	63
0	478	96.020052526266	64
0	494	97.827413051043	65
0	496	99.247606731605	66
0	498	100.92667556892	67
0	511	102.845277347023	68
0	517	104.054770227874	69
0	533	105.754654258143	70
0	546	107.222031562941	71
0	548	108.65227883973	72
0	554	110.626080921039	73
0	556	112.052781932874	74
0	558	113.396128172407	75
0	560	115.193766979387	76
0	569	117.07376526634	77
0	578	118.372565490313	78
0	580	120.10570802179	79
0	596	121.624719650604	80
0	598	123.607536767263	81
0	600	124.789149623483	82
0	616	126.601008316621	83
0	632	128.193520180302	84
0	634	129.922105851935	85
0	650	131.130300291002	86
0	652	132.607441276431	87
0	654	133.760112925785	88
0	667	135.381919153387	89
0	673	137.280983153152	90
0	686	138.673923420607	91
0	688	140.528038865308	92
0	690	141.626782268173	93
0	706	143.278086601178	94
0	708	144.535155899477	95
0	724	146.167459215157	96
0	740	148.068767651104	97
0	749	149.424472821763	98
0	751	150.738619347222	99
0	767	152.464757784156	100
0	769	153.740603683868	101
0	771	154.96599415981	102
0	777	156.612748073999	103
0	793	158.492601178706	104
0	806	159.995597711185	105
0	808	161.704984963991	106
0	810	163.169986446275	107
0	812	165.117535392641	108
0	821	166.338968128319	109
0	837	168.154975633723	110
0	853	169.81129149313	111
0	869	171.769991397047	112
0	885	173.761441965941	113
0	887	174.867653251281	114
0	899	176.148338042786	115
0	901	177.763642274663	116
0	917	179.601446142309	117
0	919	181.240505116415	118
0	921	182.73020472576	119
0	937	184.619579474098	120
0	939	186.121215703553	121
0	948	187.893531036452	122
0	960	189.83241751453	123
0	976	191.158407321555	124
0	978	192.735163258511	125
0	994	194.046607470961	126
0	996	195.890937422292	127
0	1005	197.81114393741	128
0	1007	198.962299975456	129
0	1020	200.818773038808	130
0	1026	202.39299212618	131
0	1028	203.621805799084	132
0	1030	205.285908360623	133
0	1046	206.783158449579	134
0	1055	208.684721033445	135
0	1071	209.753152093741	136
0	1077	211.377959173296	137
0	1079	213.358371006914	138
0	1091	215.129968386034	139
0	1107	216.24186814449	140
0	1109	218.112080803963	141
0	1111	219.251712058794	142
0	1120	220.269783015719	143
0	1136	221.292698140845	144
0	1152	222.937059223077	145
0	1165	224.211178999285	146
0	1167	225.461048662786	147
0	1176	227.076812021325	148
0	1189	228.290505253601	149
0	1191	229.831797831816	150
0	1193	231.104496699416	151
0	1195	232.597764966668	152
0	1197	234.331707958023	153
0	1199	235.516463379034	154
0	1215	237.437160723501	155
0	1217	238.50664524467	156
0	1226	239.980482348132	157
1	3	0.126198958082	0
1	3	0.126198958082	1
1	3	0.126198958082	2
1	19	9.804514222889	3
1	19	9.804514222889	4
1	19	9.804514222889	5
1	32	11.72672596933	6
1	32	11.72672596933	7
1	32	11.72672596933	8
1	41	13.404379338504	9
1	41	13.404379338504	10
1	41	13.404379338504	11
1	59	16.454334419569	12
1	59	16.454334419569	13
1	59	16.454334419569	14
1	75	17.507794427892	15
1	75	17.507794427892	16
1	75	17.507794427892	17
1	92	22.202219399279	18
1	92	22.202219399279	19
1	92	22.202219399279	20
1	103	25.175860154616	21
1	103	25.175860154616	22
1	103	25.175860154616	23
1	119	26.237237549615	24
1	119	26.237237549615	25
1	119	26.237237549615	26
1	135	27.511311281054	27
1	135	27.511311281054	28
1	135	27.511311281054	29
1	153	30.178463096243	30
1	153	30.178463096243	31
1	153	30.178463096243	32
1	171	33.603487541968	33
1	171	33.603487541968	34
1	171	33.603487541968	35
1	188	38.350690345184	36
1	188	38.350690345184	37
1	188	38.350690345184	38
1	203	41.076855465543	39
1	203	41.076855465543	40
1	203	41.076855465543	41
1	219	42.6561254926	42
1	219	42.6561254926	43
1	219	42.6561254926	44
1	235	44.207229459898	45
1	235	44.207229459898	46
1	235	44.207229459898	47
1	246	46.444329572352	48
1	246	46.444329572352	49
1	246	46.444329572352	50
1	262	47.50474135998	51
1	262	47.50474135998	52
1	262	47.50474135998	53
1	278	49.069317367482	54
1	278	49.069317367482	55
1	278	49.069317367482	56
1	295	57.708374532981	57
1	295	57.708374532981	58
1	295	57.708374532981	59
1	314	67.067865892808	60
1	314	67.067865892808	61
1	314	67.067865892808	62
1	326	68.272247759547	63
1	326	68.272247759547	64
1	326	68.272247759547	65
1	335	69.891357112421	66
1	335	69.891357112421	67
1	335	69.891357112421	68
1	351	70.939049519868	69
1	351	70.939049519868	70
1	351	70.939049519868	71
1	371	74.650092884802	72
1	371	74.650092884802	73
1	371	74.650092884802	74
1	387	75.757203299735	75
1	387	75.757203299735	76
1	387	75.757203299735	77
1	403	77.268866489282	78
1	403	77.268866489282	79
1	403	77.268866489282	80
1	416	82.308153794876	81
1	416	82.308153794876	82
1	416	82.308153794876	83
1	431	84.910288176178	84
1	431	84.910288176178	85
1	431	84.910288176178	86
1	447	89.219456389772	87
1	447	89.219456389772	88
1	447	89.219456389772	89
1	460	91.10366209789	90
1	460	91.10366209789	91
1	460	91.10366209789	92
1	480	96.033839465126	93
1	480	96.033839465126	94
1	480	96.033839465126	95
1	500	100.936679589959	96
1	500	100.936679589959	97
1	500	100.936679589959	98
1	513	102.860679596032	99
1	513	102.860679596032	100
1	513	102.860679596032	101
1	519	104.076727281804	102
1	519	104.076727281804	103
1	519	104.076727281804	104
1	535	105.769114257614	105
1	535	105.769114257614	106
1	535	105.769114257614	107
1	550	108.673604695386	108
1	550	108.673604695386	109
1	550	108.673604695386	110
1	562	115.227184600331	111
1	562	115.227184600331	112
1	562	115.227184600331	113
1	571	117.091546208632	114
1	571	117.091546208632	115
1	571	117.091546208632	116
1	582	120.130443286595	117
1	582	120.130443286595	118
1	582	120.130443286595	119
1	602	124.819940971482	120
1	602	124.819940971482	121
1	602	124.819940971482	122
1	618	126.614751903862	123
1	618	126.614751903862	124
1	618	126.614751903862	125
1	636	129.934956487761	126
1	636	129.934956487761	127
1	636	129.934956487761	128
1	656	133.777965772411	129
1	656	133.777965772411	130
1	656	133.777965772411	131
1	669	135.404483385367	132
1	669	135.404483385367	133
1	669	135.404483385367	134
1	675	137.291825491673	135
1	675	137.291825491673	136
1	675	137.291825491673	137
1	692	141.648939921764	138
1	692	141.648939921764	139
1	692	141.648939921764	140
1	710	144.549391642348	141
1	710	144.549391642348	142
1	710	144.549391642348	143
1	726	146.185258460141	144
1	726	146.185258460141	145
1	726	146.185258460141	146
1	742	148.079033335129	147
1	742	148.079033335129	148
1	742	148.079033335129	149
1	753	150.764979006064	150
1	753	150.764979006064	151
1	753	150.764979006064	152
1	773	155.001394157119	153
1	773	155.001394157119	154
1	773	155.001394157119	155
1	779	156.629018067986	156
1	779	156.629018067986	157
1	779	156.629018067986	158
1	795	158.518093124444	159
1	795	158.518093124444	160
1	795	158.518093124444	161
1	814	165.130642470939	162
1	814	165.130642470939	163
1	814	165.130642470939	164
1	823	166.349437068895	165
1	823	166.349437068895	166
1	823	166.349437068895	167
1	839	168.165089077949	168
1	839	168.165089077949	169
1	839	168.165089077949	170
1	855	169.864675659379	171
1	855	169.864675659379	172
1	855	169.864675659379	173
1	871	171.795109981417	174
1	871	171.795109981417	175
1	871	171.795109981417	176
1	889	174.89262392967	177
1	889	174.89262392967	178
1	889	174.89262392967	179
1	903	177.785549727874	180
1	903	177.785549727874	181
1	903	177.785549727874	182
1	923	182.760960038997	183
1	923	182.760960038997	184
1	923	182.760960038997	185
1	941	186.132542792753	186
1	941	186.132542792753	187
1	941	186.132542792753	188
1	950	187.903845416862	189
1	950	187.903845416862	190
1	950	187.903845416862	191
1	962	189.862042232275	192
1	962	189.862042232275	193
1	962	189.862042232275	194
1	980	192.752446186637	195
1	980	192.752446186637	196
1	980	192.752446186637	197
1	998	195.903523838114	198
1	998	195.903523838114	199
1	998	195.903523838114	200
1	1009	198.973375912694	201
1	1009	198.973375912694	202
1	1009	198.973375912694	203
1	1022	200.833065304631	204
1	1022	200.833065304631	205
1	1022	200.833065304631	206
1	1032	205.30322757311	207
1	1032	205.30322757311	208
1	1032	205.30322757311	209
1	1048	206.802212153658	210
1	1048	206.802212153658	211
1	1048	206.802212153658	212
1	1057	208.715895042711	213
1	1057	208.715895042711	214
1	1057	208.715895042711	215
1	1073	209.763731496255	216
1	1073	209.763731496255	217
1	1073	209.763731496255	218
1	1081	213.370719783641	219
1	1081	213.370719783641	220
1	1081	213.370719783641	221
1	1093	215.143722808994	222
1	1093	215.143722808994	223
1	1093	215.143722808994	224
1	1113	219.273414665348	225
1	1113	219.273414665348	226
1	1113	219.273414665348	227
1	1122	220.287103607319	228
1	1122	220.287103607319	229
1	1122	220.287103607319	230
1	1138	221.302750676989	231
1	1138	221.302750676989	232
1	1138	221.302750676989	233
1	1154	222.955281080961	234
1	1154	222.955281080961	235
1	1154	222.955281080961	236
1	1169	225.474085876352	237
1	1169	225.474085876352	238
1	1169	225.474085876352	239
1	1178	227.101391407868	240
1	1178	227.101391407868	241
1	1178	227.101391407868	242
1	1201	235.537253327896	243
1	1201	235.537253327896	244
1	1201	235.537253327896	245
1	1219	238.523276154635	246
1	1219	238.523276154635	247
1	1219	238.523276154635	248
2	23	9.821949119796	0
2	23	9.821949119796	1
2	52	13.476715406144	2
2	52	13.476715406144	3
2	70	16.496009008794	4
2	70	16.496009008794	5
2	79	17.527576886708	6
2	79	17.527576886708	7
2	96	22.215613018158	8
2	96	22.215613018158	9
2	114	25.219012414888	10
2	114	25.219012414888	11
2	124	26.259092337002	12
2	124	26.259092337002	13
2	139	27.542777824323	14
2	139	27.542777824323	15
2	157	30.201409294518	16
2	157	30.201409294518	17
2	192	38.384059990335	18
2	192	38.384059990335	19
2	211	41.110773470381	20
2	211	41.110773470381	21
2	227	42.693095922365	22
2	227	42.693095922365	23
2	250	46.456966083297	24
2	250	46.456966083297	25
2	273	47.559205164879	26
2	273	47.559205164879	27
2	321	67.09137344919	28
2	321	67.09137344919	29
2	330	68.282435268577	30
2	330	68.282435268577	31
2	339	69.905175024105	32
2	339	69.905175024105	33
2	362	70.977520566195	34
2	362	70.977520566195	35
2	375	74.667530351045	36
2	375	74.667530351045	37
2	391	75.778820683376	38
2	391	75.778820683376	39
2	407	77.304950897201	40
2	407	77.304950897201	41
2	435	84.937839489768	42
2	435	84.937839489768	43
2	451	89.233835002496	44
2	451	89.233835002496	45
2	465	91.122267527904	46
2	465	91.122267527904	47
2	484	96.051689836498	48
2	484	96.051689836498	49
2	523	104.087098795264	50
2	523	104.087098795264	51
2	539	105.779348671057	52
2	539	105.779348671057	53
2	590	120.157144273607	54
2	590	120.157144273607	55
2	606	124.832015870835	56
2	606	124.832015870835	57
2	622	126.631045843198	58
2	622	126.631045843198	59
2	641	129.946671249116	60
2	641	129.946671249116	61
2	679	137.301835629609	62
2	679	137.301835629609	63
2	697	141.671125204929	64
2	697	141.671125204929	65
2	715	144.568943645543	66
2	715	144.568943645543	67
2	730	146.197528191937	68
2	730	146.197528191937	69
2	746	148.102723271484	70
2	746	148.102723271484	71
2	757	150.777069400848	72
2	757	150.777069400848	73
2	790	156.676250756315	74
2	790	156.676250756315	75
2	818	165.146239458385	76
2	818	165.146239458385	77
2	827	166.365571619067	78
2	827	166.365571619067	79
2	843	168.175274105589	80
2	843	168.175274105589	81
2	859	169.892765529875	82
2	859	169.892765529875	83
2	878	171.819976625762	84
2	878	171.819976625762	85
2	894	174.927307294798	86
2	894	174.927307294798	87
2	907	177.807967251824	88
2	907	177.807967251824	89
2	930	182.788057549443	90
2	930	182.788057549443	91
2	955	187.924345169296	92
2	955	187.924345169296	93
2	966	189.875149522532	94
2	966	189.875149522532	95
2	984	192.764212817392	96
2	984	192.764212817392	97
2	1002	195.916102608136	98
2	1002	195.916102608136	99
2	1036	205.321683935289	100
2	1036	205.321683935289	101
2	1052	206.813194646688	102
2	1052	206.813194646688	103
2	1061	208.735170582099	104
2	1061	208.735170582099	105
2	1085	213.386833703054	106
2	1085	213.386833703054	107
2	1104	215.219830583182	108
2	1104	215.219830583182	109
2	1133	220.341031669803	110
2	1133	220.341031669803	111
2	1143	221.321060169333	112
2	1143	221.321060169333	113
2	1182	227.124605657005	114
2	1182	227.124605657005	115
2	1212	235.581061097283	116
2	1212	235.581061097283	117
3	26	9.852996092759	0
3	26	9.852996092759	1
3	26	9.852996092759	2
3	48	13.449045893958	3
3	48	13.449045893958	4
3	48	13.449045893958	5
3	66	16.482001674937	6
3	66	16.482001674937	7
3	66	16.482001674937	8
3	82	17.551366724319	9
3	82	17.551366724319	10
3	82	17.551366724319	11
3	110	25.199494833636	12
3	110	25.199494833636	13
3	110	25.199494833636	14
3	129	26.270361210904	15
3	129	26.270361210904	16
3	129	26.270361210904	17
3	142	27.554256732326	18
3	142	27.554256732326	19
3	142	27.554256732326	20
3	163	30.223127726177	21
3	163	30.223127726177	22
3	163	30.223127726177	23
3	178	33.666686582344	24
3	178	33.666686582344	25
3	178	33.666686582344	26
3	195	38.397646194408	27
3	195	38.397646194408	28
3	195	38.397646194408	29
3	210	41.107575476031	30
3	210	41.107575476031	31
3	210	41.107575476031	32
3	226	42.683842496179	33
3	226	42.683842496179	34
3	226	42.683842496179	35
3	256	46.485419641221	36
3	256	46.485419641221	37
3	256	46.485419641221	38
3	269	47.532749062167	39
3	269	47.532749062167	40
3	269	47.532749062167	41
3	343	69.916332905091	42
3	343	69.916332905091	43
3	343	69.916332905091	44
3	358	70.966748964497	45
3	358	70.966748964497	46
3	358	70.966748964497	47
3	381	74.687293203361	48
3	381	74.687293203361	49
3	381	74.687293203361	50
3	394	75.791491142561	51
3	394	75.791491142561	52
3	394	75.791491142561	53
3	423	82.333103112295	54
3	423	82.333103112295	55
3	423	82.333103112295	56
3	454	89.264940774304	57
3	454	89.264940774304	58
3	454	89.264940774304	59
3	470	91.141408217631	60
3	470	91.141408217631	61
3	470	91.141408217631	62
3	490	96.080187172687	63
3	490	96.080187172687	64
3	490	96.080187172687	65
3	507	100.972963322687	66
3	507	100.972963322687	67
3	507	100.972963322687	68
3	526	104.109073973721	69
3	526	104.109073973721	70
3	526	104.109073973721	71
3	542	105.79316689837	72
3	542	105.79316689837	73
3	542	105.79316689837	74
3	589	120.151843601985	75
3	589	120.151843601985	76
3	589	120.151843601985	77
3	610	124.848305958644	78
3	610	124.848305958644	79
3	610	124.848305958644	80
3	628	126.644667669179	81
3	628	126.644667669179	82
3	628	126.644667669179	83
3	646	129.95818842653	84
3	646	129.95818842653	85
3	646	129.95818842653	86
3	663	133.806669576527	87
3	663	133.806669576527	88
3	663	133.806669576527	89
3	682	137.341754225542	90
3	682	137.341754225542	91
3	682	137.341754225542	92
3	702	141.688860950206	93
3	702	141.688860950206	94
3	702	141.688860950206	95
3	720	144.58251394329	96
3	720	144.58251394329	97
3	720	144.58251394329	98
3	733	146.215426332466	99
3	733	146.215426332466	100
3	733	146.215426332466	101
3	761	150.795178072615	102
3	761	150.795178072615	103
3	761	150.795178072615	104
3	786	156.665322843914	105
3	786	156.665322843914	106
3	786	156.665322843914	107
3	802	158.562173536562	108
3	802	158.562173536562	109
3	802	158.562173536562	110
3	830	166.379764026383	111
3	830	166.379764026383	112
3	830	166.379764026383	113
3	849	168.194427296714	114
3	849	168.194427296714	115
3	849	168.194427296714	116
3	862	169.908745477192	117
3	862	169.908745477192	118
3	862	169.908745477192	119
3	881	171.841627868555	120
3	881	171.841627868555	121
3	881	171.841627868555	122
3	910	177.821039969697	123
3	910	177.821039969697	124
3	910	177.821039969697	125
3	933	182.845917283168	126
3	933	182.845917283168	127
3	933	182.845917283168	128
3	972	189.895046447786	129
3	972	189.895046447786	130
3	972	189.895046447786	131
3	988	192.778853729052	132
3	988	192.778853729052	133
3	988	192.778853729052	134
3	1016	199.02242570556	135
3	1016	199.02242570556	136
3	1016	199.02242570556	137
3	1039	205.332823059229	138
3	1039	205.332823059229	139
3	1039	205.332823059229	140
3	1064	208.781211403867	141
3	1064	208.781211403867	142
3	1064	208.781211403867	143
3	1100	215.209452650989	144
3	1100	215.209452650989	145
3	1100	215.209452650989	146
3	1129	220.325066985813	147
3	1129	220.325066985813	148
3	1129	220.325066985813	149
3	1148	221.337312135404	150
3	1148	221.337312135404	151
3	1148	221.337312135404	152
3	1161	222.983332836911	153
3	1161	222.983332836911	154
3	1161	222.983332836911	155
3	1185	227.13638603753	156
3	1185	227.13638603753	157
3	1185	227.13638603753	158
3	1208	235.560420114852	159
3	1208	235.560420114852	160
3	1208	235.560420114852	161
4	29	9.862996092759	0
4	85	17.561366724319	1
4	132	26.280361210904	2
4	145	27.564256732326	3
4	181	33.676686582344	4
4	198	38.407646194408	5
4	214	41.117575476031	6
4	230	42.693842496179	7
4	272	47.542749062167	8
4	348	69.926332905091	9
4	384	74.697293203361	10
4	397	75.801491142561	11
4	473	91.151408217631	12
4	510	100.982963322687	13
4	545	105.80316689837	14
4	593	120.161843601985	15
4	615	124.858305958644	16
4	649	129.96818842653	17
4	666	133.816669576527	18
4	685	137.351754225542	19
4	736	146.225426332466	20
4	789	156.675322843914	21
4	805	158.572173536562	22
4	833	166.389764026383	23
4	865	169.918745477192	24
4	884	171.851627868555	25
4	913	177.831039969697	26
4	936	182.855917283168	27
4	975	189.905046447786	28
4	993	192.788853729052	29
4	1019	199.03242570556	30
4	1067	208.791211403867	31
4	1103	215.219452650989	32
4	1132	220.335066985813	33
4	1164	222.993332836911	34
4	1211	235.570420114852	35
5	36	11.742359421643	0
5	36	11.742359421643	1
5	45	13.418139724728	2
5	45	13.418139724728	3
5	63	16.46980080649	4
5	63	16.46980080649	5
5	107	25.188946442699	6
5	107	25.188946442699	7
5	123	26.252582859949	8
5	123	26.252582859949	9
5	146	27.56575655015	10
5	146	27.56575655015	11
5	158	30.202358576833	12
5	158	30.202358576833	13
5	175	33.646966018011	14
5	175	33.646966018011	15
5	207	41.091275767312	16
5	207	41.091275767312	17
5	223	42.667600471603	18
5	223	42.667600471603	19
5	239	44.218556445434	20
5	239	44.218556445434	21
5	251	46.457736433033	22
5	251	46.457736433033	23
5	266	47.519327538764	24
5	266	47.519327538764	25
5	282	49.084910218075	26
5	282	49.084910218075	27
5	299	57.718500887725	28
5	299	57.718500887725	29
5	318	67.078379016117	30
5	318	67.078379016117	31
5	340	69.909770137981	32
5	340	69.909770137981	33
5	355	70.952127273281	34
5	355	70.952127273281	35
5	376	74.670294432971	36
5	376	74.670294432971	37
5	398	75.811082560047	38
5	398	75.811082560047	39
5	420	82.322748418381	40
5	420	82.322748418381	41
5	438	84.949847564731	42
5	438	84.949847564731	43
5	464	91.117912989626	44
5	464	91.117912989626	45
5	485	96.06071886963	46
5	485	96.06071886963	47
5	504	100.962104966639	48
5	504	100.962104966639	49
5	530	104.139060292384	50
5	530	104.139060292384	51
5	566	115.244474292026	52
5	566	115.244474292026	53
5	575	117.117749229983	54
5	575	117.117749229983	55
5	586	120.141137130906	56
5	586	120.141137130906	57
5	607	124.840738834525	58
5	607	124.840738834525	59
5	623	126.632523814854	60
5	623	126.632523814854	61
5	640	129.945527053002	62
5	640	129.945527053002	63
5	660	133.795106641209	64
5	660	133.795106641209	65
5	696	141.664153805585	66
5	696	141.664153805585	67
5	714	144.566579609757	68
5	714	144.566579609757	69
5	737	146.229086112242	70
5	737	146.229086112242	71
5	758	150.786721273808	72
5	758	150.786721273808	73
5	783	156.655042901695	74
5	783	156.655042901695	75
5	799	158.535879125263	76
5	799	158.535879125263	77
5	834	166.408462413959	78
5	834	166.408462413959	79
5	844	168.175905375696	80
5	844	168.175905375696	81
5	866	169.92524774321	82
5	866	169.92524774321	83
5	875	171.805487633996	84
5	875	171.805487633996	85
5	893	174.918518662053	86
5	893	174.918518662053	87
5	914	177.841556706491	88
5	914	177.841556706491	89
5	927	182.774029333239	90
5	927	182.774029333239	91
5	945	186.148227204707	92
5	945	186.148227204707	93
5	954	187.920468135628	94
5	954	187.920468135628	95
5	967	189.879282764379	96
5	967	189.879282764379	97
5	985	192.769844299403	98
5	985	192.769844299403	99
5	1013	199.000323230028	100
5	1013	199.000323230028	101
5	1043	205.348849623714	102
5	1043	205.348849623714	103
5	1068	208.805798973793	104
5	1068	208.805798973793	105
5	1086	213.387042719449	106
5	1086	213.387042719449	107
5	1097	215.195317052798	108
5	1097	215.195317052798	109
5	1117	219.298117947001	110
5	1117	219.298117947001	111
5	1126	220.303095785046	112
5	1126	220.303095785046	113
5	1142	221.316838050901	114
5	1142	221.316838050901	115
5	1158	222.973224534622	116
5	1158	222.973224534622	117
5	1173	225.500572779909	118
5	1173	225.500572779909	119
5	1205	235.548092901389	120
5	1205	235.548092901389	121
5	1223	238.558975078681	122
5	1223	238.558975078681	123

