version 2
run General-3-20231008-05:37:12-14406
attr configname General
attr datetime 20231008-05:37:12
attr experiment General
attr inifile omnetpp.ini
attr iterationvars ""
attr iterationvarsf ""
attr measurement ""
attr network Reliability
attr processid 14406
attr repetition 3
attr replication #3
attr resultdir results
attr runnumber 3
attr seedset 3
param Reliability.node[*].transmissionTime "uniform(1s, 2s)"
param Reliability.node[*].delayTime "uniform(0.01s, 0.2s)"
param Reliability.node[*].processingTime exponential(0.01s)
param Reliability.node[*].lossProbability 0.4

vector 0 Reliability.node[0] txVector ETV
vector 1 Reliability.node[1] txVector ETV
vector 2 Reliability.node[3] txVector ETV
vector 3 Reliability.node[4] txVector ETV
vector 4 Reliability.node[2] txVector ETV
vector 5 Reliability.node[5] rxVector ETV
0	1	0.114651601831	0
0	14	1.185376482154	1
0	16	2.392619360774	2
0	18	3.444086568733	3
0	34	4.884896407207	4
0	47	6.443750492367	5
0	63	7.898358257324	6
0	69	9.223664434463	7
0	71	10.648366044345	8
0	80	12.06208472799	9
0	96	13.468604645063	10
0	98	14.746582154254	11
0	100	16.201204236433	12
0	113	17.406614576535	13
0	126	18.922709195943	14
0	135	20.495503061519	15
0	144	22.30252573646	16
0	153	24.026464873062	17
0	155	25.303787922089	18
0	157	26.479850037324	19
0	159	28.470151225871	20
0	161	30.162801842273	21
0	170	31.914941872305	22
0	172	33.455961545531	23
0	188	35.16314214824	24
0	204	36.823468050754	25
0	220	38.608404750072	26
0	229	40.093498973476	27
0	235	41.703144688227	28
0	241	43.703120152068	29
0	257	44.979761698817	30
0	259	46.471577246974	31
0	261	47.60123563099	32
0	277	49.461289093898	33
0	279	50.801295019056	34
0	295	52.498045006835	35
0	311	53.592926340711	36
0	327	55.271809381966	37
0	329	56.985413926023	38
0	335	58.223850223769	39
0	337	60.152349070248	40
0	353	61.515425349886	41
0	366	63.309187621411	42
0	375	65.257715269525	43
0	391	66.480091589105	44
0	400	68.28291955923	45
0	402	69.351469481665	46
0	404	70.427965762395	47
0	420	71.966758424485	48
0	422	73.585495007992	49
0	431	74.7427396612	50
0	433	75.773668857593	51
0	439	77.00576724701	52
0	455	78.947681610541	53
0	471	80.128421939512	54
0	487	81.783555850455	55
0	489	83.367485943086	56
0	491	84.468063655844	57
0	497	85.969986999244	58
0	513	87.80889040681	59
0	529	89.653166038752	60
0	531	90.993498513777	61
0	547	92.184781804983	62
0	563	93.85911218014	63
0	579	95.064751731999	64
0	581	96.604623876348	65
0	597	98.467875485377	66
0	613	99.740408934954	67
0	629	101.156008145607	68
0	631	102.87845034811	69
0	633	104.506475833313	70
0	635	105.915065677439	71
0	651	107.079665225533	72
0	667	108.976826071342	73
0	669	110.46967739316	74
0	678	112.108307736295	75
0	680	113.840013412826	76
0	689	115.390846011762	77
0	705	116.800419241956	78
0	721	117.886662859537	79
0	737	119.775435737169	80
0	739	120.836249395341	81
0	741	122.005351034759	82
0	757	123.308210588826	83
0	759	125.135137742452	84
0	761	126.57869535505	85
0	774	128.067959346642	86
0	790	129.504635083323	87
0	806	130.995241781531	88
0	808	132.725215529159	89
0	821	134.149331429342	90
0	830	135.223015091216	91
0	839	136.749977348439	92
0	841	138.511763586264	93
0	847	139.760453518314	94
0	849	141.684320240348	95
0	862	142.724114393416	96
0	864	144.329325017818	97
0	866	146.18273624016	98
0	882	148.145659446782	99
0	898	149.287544873609	100
0	904	151.02147385764	101
0	920	152.766078617722	102
0	922	153.939877064033	103
0	924	155.799309684728	104
0	940	156.972051482248	105
0	956	158.351772736126	106
0	965	159.946455480597	107
0	967	161.591272535567	108
0	976	162.693749302598	109
0	992	163.708850072762	110
0	1001	165.257517243102	111
0	1017	167.094545895299	112
0	1033	168.19780146081	113
0	1035	169.380048805214	114
0	1037	171.089642398357	115
0	1039	172.759664733028	116
0	1041	174.197699568998	117
0	1043	175.694767098008	118
0	1059	177.634224982765	119
0	1071	178.915473965994	120
0	1084	180.520391860112	121
0	1086	181.955473904099	122
0	1088	183.678623063091	123
0	1104	185.387963081544	124
0	1117	187.368298713417	125
0	1126	189.03892380518	126
0	1128	190.132171387152	127
0	1130	191.694847447165	128
0	1132	193.370808496206	129
0	1134	195.004027075666	130
0	1140	196.266279378739	131
0	1149	198.11124091765	132
0	1165	199.934229936284	133
0	1171	201.477227605945	134
0	1173	202.934955545068	135
0	1185	204.880416353531	136
0	1187	206.317447571149	137
0	1203	207.844107782999	138
0	1205	209.490103615513	139
0	1207	211.359569280706	140
0	1223	213.320110517153	141
0	1239	214.637908963086	142
0	1248	216.553810367659	143
0	1250	218.010793451052	144
0	1256	219.728653598875	145
0	1265	220.82775175741	146
0	1267	222.433685518168	147
0	1283	223.586796462135	148
0	1285	224.812099896902	149
0	1287	226.04008264753	150
0	1289	228.018822972029	151
0	1295	229.045965547272	152
0	1301	230.153046158905	153
0	1317	231.788511945465	154
0	1319	233.195034351497	155
0	1335	235.147418377985	156
0	1351	236.98714797764	157
0	1367	238.770125757502	158
1	3	0.14297423212	0
1	3	0.14297423212	1
1	3	0.14297423212	2
1	20	3.45438988473	3
1	20	3.45438988473	4
1	20	3.45438988473	5
1	36	4.89789736114	6
1	36	4.89789736114	7
1	36	4.89789736114	8
1	49	6.467924844626	9
1	49	6.467924844626	10
1	49	6.467924844626	11
1	65	7.924909369692	12
1	65	7.924909369692	13
1	65	7.924909369692	14
1	73	10.673837179963	15
1	73	10.673837179963	16
1	73	10.673837179963	17
1	82	12.07841353531	18
1	82	12.07841353531	19
1	82	12.07841353531	20
1	102	16.213452920742	21
1	102	16.213452920742	22
1	102	16.213452920742	23
1	115	17.422727155405	24
1	115	17.422727155405	25
1	115	17.422727155405	26
1	128	18.936651586919	27
1	128	18.936651586919	28
1	128	18.936651586919	29
1	137	20.509352263129	30
1	137	20.509352263129	31
1	137	20.509352263129	32
1	146	22.318970994511	33
1	146	22.318970994511	34
1	146	22.318970994511	35
1	163	30.174037274854	36
1	163	30.174037274854	37
1	163	30.174037274854	38
1	174	33.469025257447	39
1	174	33.469025257447	40
1	174	33.469025257447	41
1	190	35.197673351979	42
1	190	35.197673351979	43
1	190	35.197673351979	44
1	206	36.869258749135	45
1	206	36.869258749135	46
1	206	36.869258749135	47
1	222	38.624479572059	48
1	222	38.624479572059	49
1	222	38.624479572059	50
1	231	40.104784325194	51
1	231	40.104784325194	52
1	231	40.104784325194	53
1	237	41.716263722171	54
1	237	41.716263722171	55
1	237	41.716263722171	56
1	243	43.716020219934	57
1	243	43.716020219934	58
1	243	43.716020219934	59
1	263	47.613699725928	60
1	263	47.613699725928	61
1	263	47.613699725928	62
1	281	50.825094473425	63
1	281	50.825094473425	64
1	281	50.825094473425	65
1	297	52.513252065971	66
1	297	52.513252065971	67
1	297	52.513252065971	68
1	313	53.612692153295	69
1	313	53.612692153295	70
1	313	53.612692153295	71
1	331	57.007376144046	72
1	331	57.007376144046	73
1	331	57.007376144046	74
1	339	60.17844631614	75
1	339	60.17844631614	76
1	339	60.17844631614	77
1	355	61.530220700923	78
1	355	61.530220700923	79
1	355	61.530220700923	80
1	368	63.33124442339	81
1	368	63.33124442339	82
1	368	63.33124442339	83
1	377	65.272127420776	84
1	377	65.272127420776	85
1	377	65.272127420776	86
1	393	66.513194819148	87
1	393	66.513194819148	88
1	393	66.513194819148	89
1	406	70.438751502967	90
1	406	70.438751502967	91
1	406	70.438751502967	92
1	424	73.59871786013	93
1	424	73.59871786013	94
1	424	73.59871786013	95
1	435	75.783797233004	96
1	435	75.783797233004	97
1	435	75.783797233004	98
1	441	77.019007498083	99
1	441	77.019007498083	100
1	441	77.019007498083	101
1	457	78.971300727481	102
1	457	78.971300727481	103
1	457	78.971300727481	104
1	473	80.138426728814	105
1	473	80.138426728814	106
1	473	80.138426728814	107
1	493	84.494207971139	108
1	493	84.494207971139	109
1	493	84.494207971139	110
1	499	85.991707741669	111
1	499	85.991707741669	112
1	499	85.991707741669	113
1	515	87.824103833911	114
1	515	87.824103833911	115
1	515	87.824103833911	116
1	533	91.011854414847	117
1	533	91.011854414847	118
1	533	91.011854414847	119
1	549	92.218680463163	120
1	549	92.218680463163	121
1	549	92.218680463163	122
1	565	93.871749022491	123
1	565	93.871749022491	124
1	565	93.871749022491	125
1	583	96.623600380848	126
1	583	96.623600380848	127
1	583	96.623600380848	128
1	599	98.487786763775	129
1	599	98.487786763775	130
1	599	98.487786763775	131
1	615	99.758874220673	132
1	615	99.758874220673	133
1	615	99.758874220673	134
1	637	105.929588502286	135
1	637	105.929588502286	136
1	637	105.929588502286	137
1	653	107.101114932024	138
1	653	107.101114932024	139
1	653	107.101114932024	140
1	671	110.488231891053	141
1	671	110.488231891053	142
1	671	110.488231891053	143
1	682	113.878048590869	144
1	682	113.878048590869	145
1	682	113.878048590869	146
1	691	115.410028903585	147
1	691	115.410028903585	148
1	691	115.410028903585	149
1	707	116.814615073951	150
1	707	116.814615073951	151
1	707	116.814615073951	152
1	723	117.897527069874	153
1	723	117.897527069874	154
1	723	117.897527069874	155
1	743	122.015729475692	156
1	743	122.015729475692	157
1	743	122.015729475692	158
1	763	126.592091772834	159
1	763	126.592091772834	160
1	763	126.592091772834	161
1	776	128.090543002076	162
1	776	128.090543002076	163
1	776	128.090543002076	164
1	792	129.5179739377	165
1	792	129.5179739377	166
1	792	129.5179739377	167
1	810	132.741302713224	168
1	810	132.741302713224	169
1	810	132.741302713224	170
1	823	134.166859044007	171
1	823	134.166859044007	172
1	823	134.166859044007	173
1	832	135.237192643948	174
1	832	135.237192643948	175
1	832	135.237192643948	176
1	843	138.527681037107	177
1	843	138.527681037107	178
1	843	138.527681037107	179
1	851	141.71627732678	180
1	851	141.71627732678	181
1	851	141.71627732678	182
1	868	146.197193098871	183
1	868	146.197193098871	184
1	868	146.197193098871	185
1	884	148.167623741584	186
1	884	148.167623741584	187
1	884	148.167623741584	188
1	900	149.3031477135	189
1	900	149.3031477135	190
1	900	149.3031477135	191
1	906	151.032615079918	192
1	906	151.032615079918	193
1	906	151.032615079918	194
1	926	155.824646055814	195
1	926	155.824646055814	196
1	926	155.824646055814	197
1	942	156.991948552185	198
1	942	156.991948552185	199
1	942	156.991948552185	200
1	958	158.363147087024	201
1	958	158.363147087024	202
1	958	158.363147087024	203
1	969	161.613870255089	204
1	969	161.613870255089	205
1	969	161.613870255089	206
1	978	162.709293677507	207
1	978	162.709293677507	208
1	978	162.709293677507	209
1	994	163.729328653836	210
1	994	163.729328653836	211
1	994	163.729328653836	212
1	1003	165.275321501665	213
1	1003	165.275321501665	214
1	1003	165.275321501665	215
1	1019	167.110112821328	216
1	1019	167.110112821328	217
1	1019	167.110112821328	218
1	1045	175.74346104661	219
1	1045	175.74346104661	220
1	1045	175.74346104661	221
1	1061	177.646796132006	222
1	1061	177.646796132006	223
1	1061	177.646796132006	224
1	1073	178.946033606362	225
1	1073	178.946033606362	226
1	1073	178.946033606362	227
1	1090	183.699958984746	228
1	1090	183.699958984746	229
1	1090	183.699958984746	230
1	1106	185.40268099187	231
1	1106	185.40268099187	232
1	1106	185.40268099187	233
1	1119	187.397528043117	234
1	1119	187.397528043117	235
1	1119	187.397528043117	236
1	1136	195.034817795086	237
1	1136	195.034817795086	238
1	1136	195.034817795086	239
1	1142	196.282641918349	240
1	1142	196.282641918349	241
1	1142	196.282641918349	242
1	1151	198.13641845693	243
1	1151	198.13641845693	244
1	1151	198.13641845693	245
1	1167	199.949617353946	246
1	1167	199.949617353946	247
1	1167	199.949617353946	248
1	1175	202.952347470106	249
1	1175	202.952347470106	250
1	1175	202.952347470106	251
1	1189	206.333432672353	252
1	1189	206.333432672353	253
1	1189	206.333432672353	254
1	1209	211.378961147639	255
1	1209	211.378961147639	256
1	1209	211.378961147639	257
1	1225	213.348133970837	258
1	1225	213.348133970837	259
1	1225	213.348133970837	260
1	1241	214.6487145856	261
1	1241	214.6487145856	262
1	1241	214.6487145856	263
1	1252	218.03231725374	264
1	1252	218.03231725374	265
1	1252	218.03231725374	266
1	1258	219.750072546037	267
1	1258	219.750072546037	268
1	1258	219.750072546037	269
1	1269	222.448562493291	270
1	1269	222.448562493291	271
1	1269	222.448562493291	272
1	1291	228.036417462614	273
1	1291	228.036417462614	274
1	1291	228.036417462614	275
1	1297	229.065110930132	276
1	1297	229.065110930132	277
1	1297	229.065110930132	278
1	1303	230.172186893985	279
1	1303	230.172186893985	280
1	1303	230.172186893985	281
1	1321	233.206259402911	282
1	1321	233.206259402911	283
1	1321	233.206259402911	284
1	1337	235.157842703976	285
1	1337	235.157842703976	286
1	1337	235.157842703976	287
1	1353	236.997330784338	288
1	1353	236.997330784338	289
1	1353	236.997330784338	290
2	7	0.161397929952	0
2	7	0.161397929952	1
2	24	3.466817953521	2
2	24	3.466817953521	3
2	60	6.50670097718	4
2	60	6.50670097718	5
2	86	12.091863720662	6
2	86	12.091863720662	7
2	141	20.525938673428	8
2	141	20.525938673428	9
2	167	30.194992184732	10
2	167	30.194992184732	11
2	178	33.487494880661	12
2	178	33.487494880661	13
2	201	35.241021647903	14
2	201	35.241021647903	15
2	211	36.885595865316	16
2	211	36.885595865316	17
2	226	38.636430155946	18
2	226	38.636430155946	19
2	247	43.729233029208	20
2	247	43.729233029208	21
2	267	47.625563425819	22
2	267	47.625563425819	23
2	285	50.836814625853	24
2	285	50.836814625853	25
2	302	52.528692146542	26
2	302	52.528692146542	27
2	324	53.66369978157	28
2	324	53.66369978157	29
2	343	60.1917215644	30
2	343	60.1917215644	31
2	381	65.283826558426	32
2	381	65.283826558426	33
2	397	66.544742046457	34
2	397	66.544742046457	35
2	410	70.454484846572	36
2	410	70.454484846572	37
2	445	77.032214402671	38
2	445	77.032214402671	39
2	461	78.996295897137	40
2	461	78.996295897137	41
2	484	80.179049766806	42
2	484	80.179049766806	43
2	503	86.009334749511	44
2	503	86.009334749511	45
2	519	87.845373846266	46
2	519	87.845373846266	47
2	537	91.022398712932	48
2	537	91.022398712932	49
2	553	92.235163953647	50
2	553	92.235163953647	51
2	569	93.884628362733	52
2	569	93.884628362733	53
2	587	96.634952134562	54
2	587	96.634952134562	55
2	604	98.507762100058	56
2	604	98.507762100058	57
2	619	99.780889061901	58
2	619	99.780889061901	59
2	641	105.948936709203	60
2	641	105.948936709203	61
2	657	107.125796690711	62
2	657	107.125796690711	63
2	675	110.503278043462	64
2	675	110.503278043462	65
2	686	113.896592776443	66
2	686	113.896592776443	67
2	695	115.425366758707	68
2	695	115.425366758707	69
2	711	116.825138174387	70
2	711	116.825138174387	71
2	727	117.926572745996	72
2	727	117.926572745996	73
2	748	122.035394278489	74
2	748	122.035394278489	75
2	767	126.603178598799	76
2	767	126.603178598799	77
2	781	128.102239023177	78
2	781	128.102239023177	79
2	803	129.572714926032	80
2	803	129.572714926032	81
2	827	134.177797673361	82
2	827	134.177797673361	83
2	855	141.727269764824	84
2	855	141.727269764824	85
2	872	146.208750083349	86
2	872	146.208750083349	87
2	888	148.186269333026	88
2	888	148.186269333026	89
2	910	151.043956193448	90
2	910	151.043956193448	91
2	937	155.865245856514	92
2	937	155.865245856514	93
2	946	157.020416394732	94
2	946	157.020416394732	95
2	982	162.722612273558	96
2	982	162.722612273558	97
2	998	163.757561500635	98
2	998	163.757561500635	99
2	1007	165.28951016443	100
2	1007	165.28951016443	101
2	1026	167.143143275811	102
2	1026	167.143143275811	103
2	1049	175.764239264052	104
2	1049	175.764239264052	105
2	1065	177.660300021947	106
2	1065	177.660300021947	107
2	1077	178.979028561866	108
2	1077	178.979028561866	109
2	1101	183.805337074753	110
2	1101	183.805337074753	111
2	1123	187.407746437802	112
2	1123	187.407746437802	113
2	1146	196.310021998045	114
2	1146	196.310021998045	115
2	1155	198.162674359381	116
2	1155	198.162674359381	117
2	1180	202.969354638967	118
2	1180	202.969354638967	119
2	1194	206.355402211448	120
2	1194	206.355402211448	121
2	1220	211.441505462294	122
2	1220	211.441505462294	123
2	1229	213.371623143945	124
2	1229	213.371623143945	125
2	1262	219.768395829522	126
2	1262	219.768395829522	127
2	1276	222.473454502595	128
2	1276	222.473454502595	129
2	1308	230.189451560781	130
2	1308	230.189451560781	131
2	1325	233.216304689027	132
2	1325	233.216304689027	133
2	1344	235.183695008385	134
2	1344	235.183695008385	135
2	1358	237.017504566855	136
2	1358	237.017504566855	137
3	10	0.194059795375	0
3	10	0.194059795375	1
3	10	0.194059795375	2
3	30	3.489363147431	3
3	30	3.489363147431	4
3	30	3.489363147431	5
3	43	4.934778106907	6
3	43	4.934778106907	7
3	43	4.934778106907	8
3	56	6.496492677711	9
3	56	6.496492677711	10
3	56	6.496492677711	11
3	89	12.112466222385	12
3	89	12.112466222385	13
3	89	12.112466222385	14
3	109	16.257748129496	15
3	109	16.257748129496	16
3	109	16.257748129496	17
3	122	17.465442846249	18
3	122	17.465442846249	19
3	122	17.465442846249	20
3	182	33.504038760875	21
3	182	33.504038760875	22
3	182	33.504038760875	23
3	197	35.228888820894	24
3	197	35.228888820894	25
3	197	35.228888820894	26
3	216	36.898055765016	27
3	216	36.898055765016	28
3	216	36.898055765016	29
3	253	43.793144320574	30
3	253	43.793144320574	31
3	253	43.793144320574	32
3	273	47.658229543157	33
3	273	47.658229543157	34
3	273	47.658229543157	35
3	289	50.850491749729	36
3	289	50.850491749729	37
3	289	50.850491749729	38
3	307	52.555428991332	39
3	307	52.555428991332	40
3	307	52.555428991332	41
3	320	53.652580162055	42
3	320	53.652580162055	43
3	320	53.652580162055	44
3	349	60.207584021149	45
3	349	60.207584021149	46
3	349	60.207584021149	47
3	362	61.566749335658	48
3	362	61.566749335658	49
3	362	61.566749335658	50
3	387	65.301089167863	51
3	387	65.301089167863	52
3	387	65.301089167863	53
3	413	70.474074357567	54
3	413	70.474074357567	55
3	413	70.474074357567	56
3	448	77.050845774221	57
3	448	77.050845774221	58
3	448	77.050845774221	59
3	464	79.008879886181	60
3	464	79.008879886181	61
3	464	79.008879886181	62
3	480	80.168368371408	63
3	480	80.168368371408	64
3	480	80.168368371408	65
3	506	86.029349308641	66
3	506	86.029349308641	67
3	506	86.029349308641	68
3	525	87.867939816793	69
3	525	87.867939816793	70
3	525	87.867939816793	71
3	540	91.035301304182	72
3	540	91.035301304182	73
3	540	91.035301304182	74
3	557	92.250811813882	75
3	557	92.250811813882	76
3	557	92.250811813882	77
3	575	93.93149462004	78
3	575	93.93149462004	79
3	575	93.93149462004	80
3	593	96.666895900603	81
3	593	96.666895900603	82
3	593	96.666895900603	83
3	607	98.517131179263	84
3	607	98.517131179263	85
3	607	98.517131179263	86
3	622	99.791826620733	87
3	622	99.791826620733	88
3	622	99.791826620733	89
3	644	105.981142576273	90
3	644	105.981142576273	91
3	644	105.981142576273	92
3	663	107.149723296774	93
3	663	107.149723296774	94
3	663	107.149723296774	95
3	698	115.436855000789	96
3	698	115.436855000789	97
3	698	115.436855000789	98
3	714	116.835205341648	99
3	714	116.835205341648	100
3	714	116.835205341648	101
3	730	117.946230898495	102
3	730	117.946230898495	103
3	730	117.946230898495	104
3	753	122.050536343282	105
3	753	122.050536343282	106
3	753	122.050536343282	107
3	770	126.617988436345	108
3	770	126.617988436345	109
3	770	126.617988436345	110
3	786	128.113118832382	111
3	786	128.113118832382	112
3	786	128.113118832382	113
3	799	129.551525970614	114
3	799	129.551525970614	115
3	799	129.551525970614	116
3	817	132.783606945487	117
3	817	132.783606945487	118
3	817	132.783606945487	119
3	858	141.739227054595	120
3	858	141.739227054595	121
3	858	141.739227054595	122
3	878	146.223717695913	123
3	878	146.223717695913	124
3	878	146.223717695913	125
3	894	148.214823766798	126
3	894	148.214823766798	127
3	894	148.214823766798	128
3	916	151.071274803751	129
3	916	151.071274803751	130
3	916	151.071274803751	131
3	933	155.848511217169	132
3	933	155.848511217169	133
3	933	155.848511217169	134
3	949	157.062823575737	135
3	949	157.062823575737	136
3	949	157.062823575737	137
3	985	162.738083303816	138
3	985	162.738083303816	139
3	985	162.738083303816	140
3	1011	165.301166079612	141
3	1011	165.301166079612	142
3	1011	165.301166079612	143
3	1029	167.166258505767	144
3	1029	167.166258505767	145
3	1029	167.166258505767	146
3	1055	175.780962168644	147
3	1055	175.780962168644	148
3	1055	175.780962168644	149
3	1080	179.003393429807	150
3	1080	179.003393429807	151
3	1080	179.003393429807	152
3	1097	183.756520030026	153
3	1097	183.756520030026	154
3	1097	183.756520030026	155
3	1113	185.432806533701	156
3	1113	185.432806533701	157
3	1113	185.432806533701	158
3	1161	198.206118206946	159
3	1161	198.206118206946	160
3	1161	198.206118206946	161
3	1197	206.365370802947	162
3	1197	206.365370802947	163
3	1197	206.365370802947	164
3	1216	211.425373638045	165
3	1216	211.425373638045	166
3	1216	211.425373638045	167
3	1235	213.39880953622	168
3	1235	213.39880953622	169
3	1235	213.39880953622	170
3	1277	222.474365263089	171
3	1277	222.474365263089	172
3	1277	222.474365263089	173
3	1311	230.197170935772	174
3	1311	230.197170935772	175
3	1311	230.197170935772	176
3	1328	233.238603113653	177
3	1328	233.238603113653	178
3	1328	233.238603113653	179
3	1347	235.200781036134	180
3	1347	235.200781036134	181
3	1347	235.200781036134	182
3	1361	237.027192123565	183
3	1361	237.027192123565	184
3	1361	237.027192123565	185
4	25	3.470426099892	0
4	25	3.470426099892	1
4	40	4.915944227462	2
4	40	4.915944227462	3
4	53	6.481582917391	4
4	53	6.481582917391	5
4	77	10.688324530351	6
4	77	10.688324530351	7
4	93	12.133333640588	8
4	93	12.133333640588	9
4	106	16.241844020512	10
4	106	16.241844020512	11
4	119	17.444412581931	12
4	119	17.444412581931	13
4	132	18.948190086544	14
4	132	18.948190086544	15
4	150	22.331289888053	16
4	150	22.331289888053	17
4	179	33.496161067407	18
4	179	33.496161067407	19
4	194	35.211005829595	20
4	194	35.211005829595	21
4	210	36.881344388263	22
4	210	36.881344388263	23
4	248	43.732539855777	24
4	248	43.732539855777	25
4	270	47.641868186846	26
4	270	47.641868186846	27
4	288	50.84860692761	28
4	288	50.84860692761	29
4	301	52.52701820598	30
4	301	52.52701820598	31
4	317	53.624985527349	32
4	317	53.624985527349	33
4	344	60.192224616053	34
4	344	60.192224616053	35
4	359	61.542845215087	36
4	359	61.542845215087	37
4	372	63.342743081442	38
4	372	63.342743081442	39
4	382	65.289400343582	40
4	382	65.289400343582	41
4	417	70.522743541856	42
4	417	70.522743541856	43
4	428	73.617671130393	44
4	428	73.617671130393	45
4	452	77.072712506421	46
4	452	77.072712506421	47
4	468	79.035742126207	48
4	468	79.035742126207	49
4	477	80.149996658817	50
4	477	80.149996658817	51
4	510	86.045617156924	52
4	510	86.045617156924	53
4	520	87.85427441411	54
4	520	87.85427441411	55
4	544	91.068736674492	56
4	544	91.068736674492	57
4	554	92.241972958503	58
4	554	92.241972958503	59
4	572	93.90435765216	60
4	572	93.90435765216	61
4	588	96.641232559429	62
4	588	96.641232559429	63
4	603	98.498665033708	64
4	603	98.498665033708	65
4	626	99.807481644585	66
4	626	99.807481644585	67
4	648	105.996168849323	68
4	648	105.996168849323	69
4	660	107.138856031971	70
4	660	107.138856031971	71
4	702	115.447280064491	72
4	702	115.447280064491	73
4	718	116.850188910378	74
4	718	116.850188910378	75
4	734	117.958501255388	76
4	734	117.958501255388	77
4	747	122.034975231829	78
4	747	122.034975231829	79
4	780	128.100992936578	80
4	780	128.100992936578	81
4	796	129.534342887951	82
4	796	129.534342887951	83
4	814	132.759313177368	84
4	814	132.759313177368	85
4	836	135.258462869336	86
4	836	135.258462869336	87
4	873	146.211646746079	88
4	873	146.211646746079	89
4	889	148.18844815306	90
4	889	148.18844815306	91
4	913	151.05833680447	92
4	913	151.05833680447	93
4	930	155.83497881672	94
4	930	155.83497881672	95
4	953	157.089363329298	96
4	953	157.089363329298	97
4	962	158.386417598776	98
4	962	158.386417598776	99
4	973	161.626567989927	100
4	973	161.626567989927	101
4	986	162.747740265964	102
4	986	162.747740265964	103
4	1008	165.293277882238	104
4	1008	165.293277882238	105
4	1023	167.131452291153	106
4	1023	167.131452291153	107
4	1050	175.767841236646	108
4	1050	175.767841236646	109
4	1066	177.663188161305	110
4	1066	177.663188161305	111
4	1094	183.721468948586	112
4	1094	183.721468948586	113
4	1110	185.418967069015	114
4	1110	185.418967069015	115
4	1156	198.167346521368	116
4	1156	198.167346521368	117
4	1179	202.968225752939	118
4	1179	202.968225752939	119
4	1193	206.353024548765	120
4	1193	206.353024548765	121
4	1213	211.411117035349	122
4	1213	211.411117035349	123
4	1230	213.375437909987	124
4	1230	213.375437909987	125
4	1245	214.662636022936	126
4	1245	214.662636022936	127
4	1273	222.459812057953	128
4	1273	222.459812057953	129
4	1307	230.186195095852	130
4	1307	230.186195095852	131
4	1332	233.258732046672	132
4	1332	233.258732046672	133
4	1341	235.168650742589	134
4	1341	235.168650742589	135
4	1357	237.013335140433	136
4	1357	237.013335140433	137
5	33	3.499363147431	0
5	59	6.506492677711	1
5	92	12.122466222385	2
5	112	16.267748129496	3
5	125	17.475442846249	4
5	187	33.514038760875	5
5	310	52.565428991332	6
5	323	53.662580162055	7
5	352	60.217584021149	8
5	365	61.576749335658	9
5	509	86.039349308641	10
5	528	87.877939816793	11
5	562	92.260811813882	12
5	578	93.94149462004	13
5	596	96.676895900603	14
5	612	98.527131179263	15
5	647	105.991142576273	16
5	717	116.845205341648	17
5	756	122.060536343282	18
5	773	126.627988436345	19
5	789	128.123118832382	20
5	820	132.793606945487	21
5	881	146.233717695913	22
5	897	148.224823766798	23
5	1100	183.766520030026	24
5	1116	185.442806533701	25
5	1219	211.435373638045	26
5	1238	213.40880953622	27
5	1316	230.207170935772	28

