version 2
run General-0-20231008-05:37:12-14406
attr configname General
attr datetime 20231008-05:37:12
attr experiment General
attr inifile omnetpp.ini
attr iterationvars ""
attr iterationvarsf ""
attr measurement ""
attr network Reliability
attr processid 14406
attr repetition 0
attr replication #0
attr resultdir results
attr runnumber 0
attr seedset 0
param Reliability.node[*].transmissionTime "uniform(1s, 2s)"
param Reliability.node[*].delayTime "uniform(0.01s, 0.2s)"
param Reliability.node[*].processingTime exponential(0.01s)
param Reliability.node[*].lossProbability 0.4

vector 0 Reliability.node[0] txVector ETV
vector 1 Reliability.node[1] txVector ETV
vector 2 Reliability.node[3] txVector ETV
vector 3 Reliability.node[2] txVector ETV
vector 4 Reliability.node[4] txVector ETV
vector 5 Reliability.node[5] rxVector ETV
0	1	0.114274565438	0
0	17	1.707119181827	1
0	19	2.979775476344	2
0	32	4.457440587999	3
0	34	5.477658987119	4
0	50	7.310278829959	5
0	66	8.95019984695	6
0	68	10.518633795277	7
0	70	11.537423593298	8
0	72	13.155059094148	9
0	74	14.767154816611	10
0	76	16.384088815263	11
0	89	18.327836890545	12
0	95	19.980976922743	13
0	97	21.731663061611	14
0	99	23.339493728315	15
0	111	24.664540955869	16
0	123	26.659840521475	17
0	139	28.334592843733	18
0	152	30.306537842683	19
0	161	31.589344802152	20
0	177	33.469820695303	21
0	193	34.552933181941	22
0	195	36.105754666103	23
0	208	37.270695126688	24
0	224	38.519448266437	25
0	226	40.218927543916	26
0	242	41.516364495576	27
0	258	43.017688878652	28
0	260	44.307766488593	29
0	266	45.925781915503	30
0	268	47.224064243332	31
0	270	48.794029154888	32
0	282	50.384901917846	33
0	284	51.752463789498	34
0	296	53.188328708829	35
0	305	54.90257000721	36
0	321	56.410885457489	37
0	330	57.784176210248	38
0	332	59.63997955325	39
0	345	60.651693634763	40
0	347	61.831183902761	41
0	363	63.002170495531	42
0	379	64.052540554274	43
0	381	65.60678299035	44
0	383	66.819173492333	45
0	385	68.041616715798	46
0	397	69.260366083663	47
0	409	70.316784418263	48
0	411	72.171398001332	49
0	427	73.915232543675	50
0	429	75.05245296455	51
0	445	76.281672287574	52
0	461	77.707123824935	53
0	463	79.020816222373	54
0	479	80.978267078362	55
0	488	82.785847343346	56
0	497	84.502707023248	57
0	513	85.667665894683	58
0	519	87.399359653079	59
0	521	88.686274698543	60
0	523	90.36353800523	61
0	525	91.426576297804	62
0	541	92.982225535046	63
0	557	94.769767688429	64
0	570	96.47831583729	65
0	586	97.626456697313	66
0	602	98.816304611117	67
0	604	100.590351947425	68
0	606	101.923497103695	69
0	608	103.004598496091	70
0	614	104.411839663824	71
0	623	105.465266841305	72
0	625	107.348126839688	73
0	627	108.598749559447	74
0	643	110.276161383912	75
0	645	111.868096547741	76
0	647	113.344573751632	77
0	649	114.83250832309	78
0	661	116.291022876818	79
0	674	117.800364942597	80
0	676	119.174178082105	81
0	678	120.761777718859	82
0	687	122.034599615801	83
0	703	123.749778364627	84
0	719	125.533426332362	85
0	721	126.693296399042	86
0	730	127.822708736714	87
0	736	129.281312693218	88
0	752	131.185357088065	89
0	754	132.981748562847	90
0	756	134.940915165777	91
0	772	136.399053990683	92
0	774	138.214577815338	93
0	776	139.373992279247	94
0	785	141.00289071871	95
0	798	142.730587055749	96
0	811	143.915819380275	97
0	813	144.971785210614	98
0	815	146.058317700476	99
0	827	147.295490990934	100
0	829	148.327956287033	101
0	831	149.90810800654	102
0	833	151.679197058623	103
0	835	153.055423640023	104
0	837	154.546448380762	105
0	846	156.528088060982	106
0	862	157.691042484559	107
0	864	159.353547055118	108
0	880	160.599610238413	109
0	889	161.960155797734	110
0	891	163.409239224701	111
0	904	165.3465235886	112
0	906	166.595943631681	113
0	912	167.701849790134	114
0	914	169.391618055601	115
0	923	170.449974407751	116
0	925	171.82421899059	117
0	941	173.148623851902	118
0	957	174.703985112096	119
0	973	176.411902573733	120
0	982	178.372159356326	121
0	984	179.964389774325	122
0	986	181.861150930944	123
0	992	183.267884272692	124
0	1001	184.723328419105	125
0	1003	186.001102092285	126
0	1016	187.895965287071	127
0	1018	189.149607809568	128
0	1034	190.595743316999	129
0	1050	191.937441430595	130
0	1052	193.310120505123	131
0	1061	194.840657719719	132
0	1063	196.266165355761	133
0	1079	198.172337196609	134
0	1081	199.561204629792	135
0	1097	200.788288600817	136
0	1099	202.436886910423	137
0	1115	203.465986918732	138
0	1131	205.005105150239	139
0	1140	206.547234606305	140
0	1142	208.467017417382	141
0	1144	209.503051239606	142
0	1146	210.677823246997	143
0	1148	212.066957926219	144
0	1164	214.019100625142	145
0	1173	215.459364374941	146
0	1175	216.893519954365	147
0	1177	218.411132056574	148
0	1190	219.885800041101	149
0	1192	221.883762293338	150
0	1198	223.245951350854	151
0	1204	225.225478276919	152
0	1206	226.905826948193	153
0	1215	227.96903456336	154
0	1231	229.859687373583	155
0	1247	231.511996328207	156
0	1256	232.778693203889	157
0	1258	234.114191378774	158
0	1264	235.261876956867	159
0	1266	236.694158439832	160
0	1275	238.216154709533	161
0	1288	239.799558895482	162
1	3	0.142870607559	0
1	3	0.142870607559	1
1	3	0.142870607559	2
1	21	3.006497588347	3
1	21	3.006497588347	4
1	21	3.006497588347	5
1	36	5.502716829705	6
1	36	5.502716829705	7
1	36	5.502716829705	8
1	52	7.321826126764	9
1	52	7.321826126764	10
1	52	7.321826126764	11
1	78	16.40554020481	12
1	78	16.40554020481	13
1	78	16.40554020481	14
1	91	18.339711151205	15
1	91	18.339711151205	16
1	91	18.339711151205	17
1	101	23.349885559879	18
1	101	23.349885559879	19
1	101	23.349885559879	20
1	113	24.683260114405	21
1	113	24.683260114405	22
1	113	24.683260114405	23
1	125	26.673656079909	24
1	125	26.673656079909	25
1	125	26.673656079909	26
1	141	28.365646056741	27
1	141	28.365646056741	28
1	141	28.365646056741	29
1	154	30.317818410336	30
1	154	30.317818410336	31
1	154	30.317818410336	32
1	163	31.624383919983	33
1	163	31.624383919983	34
1	163	31.624383919983	35
1	179	33.483074099458	36
1	179	33.483074099458	37
1	179	33.483074099458	38
1	197	36.120371975063	39
1	197	36.120371975063	40
1	197	36.120371975063	41
1	210	37.289279056366	42
1	210	37.289279056366	43
1	210	37.289279056366	44
1	228	40.245736765961	45
1	228	40.245736765961	46
1	228	40.245736765961	47
1	244	41.557619179153	48
1	244	41.557619179153	49
1	244	41.557619179153	50
1	262	44.323366099294	51
1	262	44.323366099294	52
1	262	44.323366099294	53
1	272	48.812569952244	54
1	272	48.812569952244	55
1	272	48.812569952244	56
1	286	51.78471293607	57
1	286	51.78471293607	58
1	286	51.78471293607	59
1	298	53.265982614028	60
1	298	53.265982614028	61
1	298	53.265982614028	62
1	307	54.914395393229	63
1	307	54.914395393229	64
1	307	54.914395393229	65
1	323	56.42633402877	66
1	323	56.42633402877	67
1	323	56.42633402877	68
1	334	59.654442081455	69
1	334	59.654442081455	70
1	334	59.654442081455	71
1	349	61.847409876201	72
1	349	61.847409876201	73
1	349	61.847409876201	74
1	365	63.024180204596	75
1	365	63.024180204596	76
1	365	63.024180204596	77
1	387	68.060046503552	78
1	387	68.060046503552	79
1	387	68.060046503552	80
1	399	69.2770572209	81
1	399	69.2770572209	82
1	399	69.2770572209	83
1	413	72.187910308651	84
1	413	72.187910308651	85
1	413	72.187910308651	86
1	431	75.083788597425	87
1	431	75.083788597425	88
1	431	75.083788597425	89
1	447	76.313329924383	90
1	447	76.313329924383	91
1	447	76.313329924383	92
1	465	79.037198108429	93
1	465	79.037198108429	94
1	465	79.037198108429	95
1	481	81.0020138779	96
1	481	81.0020138779	97
1	481	81.0020138779	98
1	490	82.800890142679	99
1	490	82.800890142679	100
1	490	82.800890142679	101
1	499	84.514040429481	102
1	499	84.514040429481	103
1	499	84.514040429481	104
1	515	85.678132772119	105
1	515	85.678132772119	106
1	515	85.678132772119	107
1	527	91.436669128048	108
1	527	91.436669128048	109
1	527	91.436669128048	110
1	543	93.001551653599	111
1	543	93.001551653599	112
1	543	93.001551653599	113
1	559	94.786662033807	114
1	559	94.786662033807	115
1	559	94.786662033807	116
1	572	96.528395333839	117
1	572	96.528395333839	118
1	572	96.528395333839	119
1	588	97.643617150493	120
1	588	97.643617150493	121
1	588	97.643617150493	122
1	610	103.017241200732	123
1	610	103.017241200732	124
1	610	103.017241200732	125
1	616	104.434771142412	126
1	616	104.434771142412	127
1	616	104.434771142412	128
1	629	108.625379217254	129
1	629	108.625379217254	130
1	629	108.625379217254	131
1	651	114.849944155008	132
1	651	114.849944155008	133
1	651	114.849944155008	134
1	663	116.301926249259	135
1	663	116.301926249259	136
1	663	116.301926249259	137
1	680	120.776411619134	138
1	680	120.776411619134	139
1	680	120.776411619134	140
1	689	122.051349125538	141
1	689	122.051349125538	142
1	689	122.051349125538	143
1	705	123.767907348239	144
1	705	123.767907348239	145
1	705	123.767907348239	146
1	723	126.711945780136	147
1	723	126.711945780136	148
1	723	126.711945780136	149
1	732	127.845588356465	150
1	732	127.845588356465	151
1	732	127.845588356465	152
1	738	129.303025330167	153
1	738	129.303025330167	154
1	738	129.303025330167	155
1	758	134.959855179804	156
1	758	134.959855179804	157
1	758	134.959855179804	158
1	778	139.389074473788	159
1	778	139.389074473788	160
1	778	139.389074473788	161
1	787	141.026447903849	162
1	787	141.026447903849	163
1	787	141.026447903849	164
1	800	142.745716325667	165
1	800	142.745716325667	166
1	800	142.745716325667	167
1	817	146.086613122035	168
1	817	146.086613122035	169
1	817	146.086613122035	170
1	839	154.559254140024	171
1	839	154.559254140024	172
1	839	154.559254140024	173
1	848	156.54827023677	174
1	848	156.54827023677	175
1	848	156.54827023677	176
1	866	159.374508980728	177
1	866	159.374508980728	178
1	866	159.374508980728	179
1	882	160.627251112335	180
1	882	160.627251112335	181
1	882	160.627251112335	182
1	893	163.42221295998	183
1	893	163.42221295998	184
1	893	163.42221295998	185
1	908	166.636093314403	186
1	908	166.636093314403	187
1	908	166.636093314403	188
1	916	169.414737686412	189
1	916	169.414737686412	190
1	916	169.414737686412	191
1	927	171.845616944657	192
1	927	171.845616944657	193
1	927	171.845616944657	194
1	943	173.160874276841	195
1	943	173.160874276841	196
1	943	173.160874276841	197
1	959	174.726331910857	198
1	959	174.726331910857	199
1	959	174.726331910857	200
1	975	176.422654491825	201
1	975	176.422654491825	202
1	975	176.422654491825	203
1	988	181.879182298663	204
1	988	181.879182298663	205
1	988	181.879182298663	206
1	994	183.283021128825	207
1	994	183.283021128825	208
1	994	183.283021128825	209
1	1005	186.01137089848	210
1	1005	186.01137089848	211
1	1005	186.01137089848	212
1	1020	189.160712968334	213
1	1020	189.160712968334	214
1	1020	189.160712968334	215
1	1036	190.617020921335	216
1	1036	190.617020921335	217
1	1036	190.617020921335	218
1	1054	193.345645270058	219
1	1054	193.345645270058	220
1	1054	193.345645270058	221
1	1065	196.276250835947	222
1	1065	196.276250835947	223
1	1065	196.276250835947	224
1	1083	199.577271753884	225
1	1083	199.577271753884	226
1	1083	199.577271753884	227
1	1101	202.472085797361	228
1	1101	202.472085797361	229
1	1101	202.472085797361	230
1	1117	203.497814057625	231
1	1117	203.497814057625	232
1	1117	203.497814057625	233
1	1133	205.016393936699	234
1	1133	205.016393936699	235
1	1133	205.016393936699	236
1	1150	212.080525088746	237
1	1150	212.080525088746	238
1	1150	212.080525088746	239
1	1166	214.029896326693	240
1	1166	214.029896326693	241
1	1166	214.029896326693	242
1	1179	218.423169910396	243
1	1179	218.423169910396	244
1	1179	218.423169910396	245
1	1194	221.900123327882	246
1	1194	221.900123327882	247
1	1194	221.900123327882	248
1	1200	223.257870929874	249
1	1200	223.257870929874	250
1	1200	223.257870929874	251
1	1208	226.925172752356	252
1	1208	226.925172752356	253
1	1208	226.925172752356	254
1	1217	227.984701582958	255
1	1217	227.984701582958	256
1	1217	227.984701582958	257
1	1233	229.886931292438	258
1	1233	229.886931292438	259
1	1233	229.886931292438	260
1	1249	231.530298934675	261
1	1249	231.530298934675	262
1	1249	231.530298934675	263
1	1260	234.124838214825	264
1	1260	234.124838214825	265
1	1260	234.124838214825	266
1	1268	236.718990173912	267
1	1268	236.718990173912	268
1	1268	236.718990173912	269
1	1277	238.253716840308	270
1	1277	238.253716840308	271
1	1277	238.253716840308	272
2	7	0.158381092426	0
2	7	0.158381092426	1
2	40	5.519133921432	2
2	40	5.519133921432	3
2	56	7.33294558837	4
2	56	7.33294558837	5
2	82	16.421285528877	6
2	82	16.421285528877	7
2	105	23.360961910961	8
2	105	23.360961910961	9
2	117	24.69606288449	10
2	117	24.69606288449	11
2	130	26.688256219486	12
2	130	26.688256219486	13
2	158	30.3290822967	14
2	158	30.3290822967	15
2	167	31.642712355144	16
2	167	31.642712355144	17
2	183	33.511547375968	18
2	183	33.511547375968	19
2	201	36.138802805384	20
2	201	36.138802805384	21
2	214	37.309465643666	22
2	214	37.309465643666	23
2	232	40.277031759922	24
2	232	40.277031759922	25
2	249	41.577263714808	26
2	249	41.577263714808	27
2	276	48.826441253165	28
2	276	48.826441253165	29
2	290	51.800653671053	30
2	290	51.800653671053	31
2	302	53.296241702199	32
2	302	53.296241702199	33
2	311	54.940862584242	34
2	311	54.940862584242	35
2	327	56.440883147218	36
2	327	56.440883147218	37
2	357	61.883732064826	38
2	357	61.883732064826	39
2	376	63.102961254339	40
2	376	63.102961254339	41
2	391	68.072626631191	42
2	391	68.072626631191	43
2	403	69.291801383803	44
2	403	69.291801383803	45
2	420	72.220608708809	46
2	420	72.220608708809	47
2	436	75.10266361671	48
2	436	75.10266361671	49
2	451	76.334961057217	50
2	451	76.334961057217	51
2	476	79.076629319821	52
2	476	79.076629319821	53
2	510	84.588508400848	54
2	510	84.588508400848	55
2	531	91.44997822686	56
2	531	91.44997822686	57
2	547	93.017624446485	58
2	547	93.017624446485	59
2	576	96.538435897052	60
2	576	96.538435897052	61
2	592	97.65464683413	62
2	592	97.65464683413	63
2	620	104.459493183992	64
2	620	104.459493183992	65
2	634	108.643529400563	66
2	634	108.643529400563	67
2	655	114.863278188392	68
2	655	114.863278188392	69
2	684	120.792570811972	70
2	684	120.792570811972	71
2	693	122.065013638456	72
2	693	122.065013638456	73
2	709	123.779460204094	74
2	709	123.779460204094	75
2	727	126.746085944441	76
2	727	126.746085944441	77
2	749	129.344724086211	78
2	749	129.344724086211	79
2	762	134.970880698734	80
2	762	134.970880698734	81
2	782	139.404591509914	82
2	782	139.404591509914	83
2	791	141.037723639587	84
2	791	141.037723639587	85
2	822	146.102213205768	86
2	822	146.102213205768	87
2	843	154.569721489041	88
2	843	154.569721489041	89
2	852	156.562860516045	90
2	852	156.562860516045	91
2	870	159.391394119608	92
2	870	159.391394119608	93
2	897	163.444157859415	94
2	897	163.444157859415	95
2	932	171.861582443826	96
2	932	171.861582443826	97
2	948	173.199043394141	98
2	948	173.199043394141	99
2	963	174.73798484098	100
2	963	174.73798484098	101
2	979	176.471563592729	102
2	979	176.471563592729	103
2	998	183.300070622039	104
2	998	183.300070622039	105
2	1024	189.184187456571	106
2	1024	189.184187456571	107
2	1040	190.628625762409	108
2	1040	190.628625762409	109
2	1058	193.360853058707	110
2	1058	193.360853058707	111
2	1069	196.287480461616	112
2	1069	196.287480461616	113
2	1090	199.620178242187	114
2	1090	199.620178242187	115
2	1106	202.489424497031	116
2	1106	202.489424497031	117
2	1128	203.586594131774	118
2	1128	203.586594131774	119
2	1154	212.112267417817	120
2	1154	212.112267417817	121
2	1221	227.998818588737	122
2	1221	227.998818588737	123
2	1244	229.954078473029	124
2	1244	229.954078473029	125
3	8	0.160742618959	0
3	8	0.160742618959	1
3	25	3.024891916876	2
3	25	3.024891916876	3
3	43	5.533125751864	4
3	43	5.533125751864	5
3	60	7.346039773565	6
3	60	7.346039773565	7
3	108	23.404430528341	8
3	108	23.404430528341	9
3	118	24.699539530215	10
3	118	24.699539530215	11
3	129	26.685844885874	12
3	129	26.685844885874	13
3	145	28.413265329586	14
3	145	28.413265329586	15
3	174	31.673204093049	16
3	174	31.673204093049	17
3	190	33.547563255739	18
3	190	33.547563255739	19
3	217	37.321916392125	20
3	217	37.321916392125	21
3	239	40.334432852877	22
3	239	40.334432852877	23
3	248	41.572642287136	24
3	248	41.572642287136	25
3	279	48.857295307037	26
3	279	48.857295307037	27
3	291	51.802413704665	28
3	291	51.802413704665	29
3	312	54.943234682095	30
3	312	54.943234682095	31
3	338	59.678304994975	32
3	338	59.678304994975	33
3	353	61.861646447215	34
3	353	61.861646447215	35
3	369	63.061393687155	36
3	369	63.061393687155	37
3	392	68.076788949248	38
3	392	68.076788949248	39
3	404	69.298975801937	40
3	404	69.298975801937	41
3	417	72.205601506662	42
3	417	72.205601506662	43
3	435	75.0986249813	44
3	435	75.0986249813	45
3	454	76.353861771079	46
3	454	76.353861771079	47
3	469	79.049523358613	48
3	469	79.049523358613	49
3	485	81.019299116327	50
3	485	81.019299116327	51
3	494	82.829242776708	52
3	494	82.829242776708	53
3	503	84.552246788965	54
3	503	84.552246788965	55
3	535	91.462047415193	56
3	535	91.462047415193	57
3	554	93.095812855174	58
3	554	93.095812855174	59
3	563	94.815563050788	60
3	563	94.815563050788	61
3	579	96.552402090809	62
3	579	96.552402090809	63
3	599	97.687278130138	64
3	599	97.687278130138	65
3	633	108.640835794402	66
3	633	108.640835794402	67
3	656	114.871839117521	68
3	656	114.871839117521	69
3	667	116.323866382965	70
3	667	116.323866382965	71
3	694	122.068664578929	72
3	694	122.068664578929	73
3	716	123.804091445118	74
3	716	123.804091445118	75
3	742	129.321705029987	76
3	742	129.321705029987	77
3	763	134.978015365444	78
3	763	134.978015365444	79
3	804	142.767119114436	80
3	804	142.767119114436	81
3	821	146.096770413273	82
3	821	146.096770413273	83
3	853	156.568487420244	84
3	853	156.568487420244	85
3	873	159.403746366435	86
3	873	159.403746366435	87
3	886	160.642318344474	88
3	886	160.642318344474	89
3	920	169.434710675654	90
3	920	169.434710675654	91
3	931	171.8575025919	92
3	931	171.8575025919	93
3	947	173.191070121873	94
3	947	173.191070121873	95
3	964	174.739796244132	96
3	964	174.739796244132	97
3	1009	186.025428161919	98
3	1009	186.025428161919	99
3	1031	189.240690750919	100
3	1031	189.240690750919	101
3	1041	190.630204851496	102
3	1041	190.630204851496	103
3	1070	196.288604894612	104
3	1070	196.288604894612	105
3	1087	199.596157041007	106
3	1087	199.596157041007	107
3	1105	202.487920399084	108
3	1105	202.487920399084	109
3	1121	203.517459055243	110
3	1121	203.517459055243	111
3	1137	205.044107469892	112
3	1137	205.044107469892	113
3	1161	212.143682229811	114
3	1161	212.143682229811	115
3	1170	214.064086840635	116
3	1170	214.064086840635	117
3	1183	218.45600385074	118
3	1183	218.45600385074	119
3	1212	226.940334786905	120
3	1212	226.940334786905	121
3	1222	228.000799204687	122
3	1222	228.000799204687	123
3	1237	229.901993932109	124
3	1237	229.901993932109	125
3	1253	231.554762010397	126
3	1253	231.554762010397	127
3	1272	236.734669050843	128
3	1272	236.734669050843	129
3	1281	238.28256548645	130
3	1281	238.28256548645	131
4	13	0.173232374063	0
4	13	0.173232374063	1
4	13	0.173232374063	2
4	28	3.035628770431	3
4	28	3.035628770431	4
4	28	3.035628770431	5
4	44	5.535323216028	6
4	44	5.535323216028	7
4	44	5.535323216028	8
4	59	7.346018391892	9
4	59	7.346018391892	10
4	59	7.346018391892	11
4	85	16.432331141135	12
4	85	16.432331141135	13
4	85	16.432331141135	14
4	133	26.695981531658	15
4	133	26.695981531658	16
4	133	26.695981531658	17
4	148	28.436707782308	18
4	148	28.436707782308	19
4	148	28.436707782308	20
4	170	31.655796503545	21
4	170	31.655796503545	22
4	170	31.655796503545	23
4	186	33.534146714069	24
4	186	33.534146714069	25
4	186	33.534146714069	26
4	204	36.162090384122	27
4	204	36.162090384122	28
4	204	36.162090384122	29
4	220	37.349988460235	30
4	220	37.349988460235	31
4	220	37.349988460235	32
4	235	40.290789148346	33
4	235	40.290789148346	34
4	235	40.290789148346	35
4	252	41.582836084949	36
4	252	41.582836084949	37
4	252	41.582836084949	38
4	315	54.952370494344	39
4	315	54.952370494344	40
4	315	54.952370494344	41
4	341	59.695029600143	42
4	341	59.695029600143	43
4	341	59.695029600143	44
4	356	61.880726087488	45
4	356	61.880726087488	46
4	356	61.880726087488	47
4	372	63.079064483701	48
4	372	63.079064483701	49
4	372	63.079064483701	50
4	421	72.221940806856	51
4	421	72.221940806856	52
4	421	72.221940806856	53
4	441	75.115958658032	54
4	441	75.115958658032	55
4	441	75.115958658032	56
4	457	76.366468172373	57
4	457	76.366468172373	58
4	457	76.366468172373	59
4	472	79.064210123373	60
4	472	79.064210123373	61
4	472	79.064210123373	62
4	506	84.576056419922	63
4	506	84.576056419922	64
4	506	84.576056419922	65
4	534	91.461982648811	66
4	534	91.461982648811	67
4	534	91.461982648811	68
4	550	93.05744645324	69
4	550	93.05744645324	70
4	550	93.05744645324	71
4	566	94.825696303236	72
4	566	94.825696303236	73
4	566	94.825696303236	74
4	582	96.563874341182	75
4	582	96.563874341182	76
4	582	96.563874341182	77
4	595	97.673068197158	78
4	595	97.673068197158	79
4	595	97.673068197158	80
4	639	108.655600580228	81
4	639	108.655600580228	82
4	639	108.655600580228	83
4	670	116.348890510902	84
4	670	116.348890510902	85
4	670	116.348890510902	86
4	699	122.080367681967	87
4	699	122.080367681967	88
4	699	122.080367681967	89
4	712	123.792711912799	90
4	712	123.792711912799	91
4	712	123.792711912799	92
4	745	129.331979450991	93
4	745	129.331979450991	94
4	745	129.331979450991	95
4	768	134.98945504976	96
4	768	134.98945504976	97
4	768	134.98945504976	98
4	794	141.052135187694	99
4	794	141.052135187694	100
4	794	141.052135187694	101
4	807	142.778155822802	102
4	807	142.778155822802	103
4	807	142.778155822802	104
4	858	156.58188979244	105
4	858	156.58188979244	106
4	858	156.58188979244	107
4	874	159.404777580795	108
4	874	159.404777580795	109
4	874	159.404777580795	110
4	900	163.457675533269	111
4	900	163.457675533269	112
4	900	163.457675533269	113
4	937	171.87591909238	114
4	937	171.87591909238	115
4	937	171.87591909238	116
4	951	173.20131940283	117
4	951	173.20131940283	118
4	951	173.20131940283	119
4	969	174.759894655514	120
4	969	174.759894655514	121
4	969	174.759894655514	122
4	1012	186.055256287722	123
4	1012	186.055256287722	124
4	1012	186.055256287722	125
4	1027	189.201739574749	126
4	1027	189.201739574749	127
4	1027	189.201739574749	128
4	1044	190.638932780139	129
4	1044	190.638932780139	130
4	1044	190.638932780139	131
4	1075	196.300902208532	132
4	1075	196.300902208532	133
4	1075	196.300902208532	134
4	1093	199.635988328742	135
4	1093	199.635988328742	136
4	1093	199.635988328742	137
4	1111	202.514353931436	138
4	1111	202.514353931436	139
4	1111	202.514353931436	140
4	1124	203.566873642089	141
4	1124	203.566873642089	142
4	1124	203.566873642089	143
4	1157	212.124986076203	144
4	1157	212.124986076203	145
4	1157	212.124986076203	146
4	1186	218.47353154726	147
4	1186	218.47353154726	148
4	1186	218.47353154726	149
4	1227	228.017802612401	150
4	1227	228.017802612401	151
4	1227	228.017802612401	152
4	1240	229.916330926813	153
4	1240	229.916330926813	154
4	1240	229.916330926813	155
4	1284	238.333564829377	156
4	1284	238.333564829377	157
4	1284	238.333564829377	158
5	16	0.183232374063	0
5	31	3.045628770431	1
5	49	5.545323216028	2
5	63	7.356018391892	3
5	88	16.442331141135	4
5	151	28.446707782308	5
5	207	36.172090384122	6
5	223	37.359988460235	7
5	238	40.300789148346	8
5	320	54.962370494344	9
5	375	63.089064483701	10
5	538	91.471982648811	11
5	553	93.06744645324	12
5	569	94.835696303236	13
5	598	97.683068197158	14
5	748	129.341979450991	15
5	771	134.99945504976	16
5	797	141.062135187694	17
5	810	142.788155822802	18
5	861	156.59188979244	19
5	879	159.414777580795	20
5	940	171.88591909238	21
5	956	173.21131940283	22
5	1015	186.065256287722	23
5	1030	189.211739574749	24
5	1049	190.648932780139	25
5	1078	196.310902208532	26
5	1096	199.645988328742	27
5	1114	202.524353931436	28
5	1127	203.576873642089	29
5	1243	229.926330926813	30
5	1287	238.343564829377	31

