version 2
run General-1-20230921-22:33:08-6992
attr configname General
attr datetime 20230921-22:33:08
attr experiment General
attr inifile omnetpp.ini
attr iterationvars ""
attr iterationvarsf ""
attr measurement ""
attr network Network3
attr processid 6992
attr repetition 1
attr replication #1
attr resultdir results
attr runnumber 1
attr seedset 1
param Network3.node[*].transmissionTime "uniform(1s, 2s)"
param Network3.node[*].delayTime "uniform(0.01s, 0.2s)"
param Network3.node[*].processingTime exponential(0.01s)
param Network3.node[0].lossProbability 0
param Network3.node[1].lossProbability 0.0
param Network3.node[2].lossProbability 0.0
param Network3.node[3].lossProbability "0.0 / 2"
param Network3.node[4].lossProbability "0.0 / 2"
param Network3.node[6].lossProbability "0.0 * 2"
param Network3.node[7].lossProbability "0.0 * 2"
param Network3.node[5].lossProbability "0.0 * 3"

vector 0 Network3.node[0] txVector ETV
vector 1 Network3.node[2] txVector ETV
vector 2 Network3.node[4] txVector ETV
vector 3 Network3.node[7] txVector ETV
vector 4 Network3.node[1] txVector ETV
vector 5 Network3.node[5] rxVector ETV
vector 6 Network3.node[3] txVector ETV
vector 7 Network3.node[6] txVector ETV
0	1	0.089234179703	0
0	1	0.089234179703	1
0	26	2.086418987836	2
0	26	2.086418987836	3
0	51	3.964536424845	4
0	51	3.964536424845	5
0	76	5.793683335537	6
0	76	5.793683335537	7
0	101	6.811971615653	8
0	101	6.811971615653	9
0	126	7.895594620963	10
0	126	7.895594620963	11
0	151	9.309773887161	12
0	151	9.309773887161	13
0	176	10.962072765341	14
0	176	10.962072765341	15
0	201	12.625514263639	16
0	201	12.625514263639	17
0	226	14.20414819557	18
0	226	14.20414819557	19
0	251	15.900966358257	20
0	251	15.900966358257	21
0	276	17.132724821686	22
0	276	17.132724821686	23
0	301	18.996266674369	24
0	301	18.996266674369	25
0	326	20.290626146251	26
0	326	20.290626146251	27
0	351	22.119607043571	28
0	351	22.119607043571	29
0	376	24.036050746336	30
0	376	24.036050746336	31
0	401	25.560721052929	32
0	401	25.560721052929	33
0	426	27.485921160902	34
0	426	27.485921160902	35
0	451	28.612250681386	36
0	451	28.612250681386	37
0	476	29.966835367844	38
0	476	29.966835367844	39
0	501	31.4005117215	40
0	501	31.4005117215	41
0	526	33.268029176283	42
0	526	33.268029176283	43
0	551	34.966086425239	44
0	551	34.966086425239	45
0	576	36.650774333279	46
0	576	36.650774333279	47
0	601	38.223262854039	48
0	601	38.223262854039	49
0	626	40.088352490335	50
0	626	40.088352490335	51
0	651	41.19924379315	52
0	651	41.19924379315	53
0	676	42.416743012031	54
0	676	42.416743012031	55
0	701	44.261452621433	56
0	701	44.261452621433	57
0	726	46.231017128217	58
0	726	46.231017128217	59
0	751	47.772576505204	60
0	751	47.772576505204	61
0	776	49.498714942138	62
0	776	49.498714942138	63
0	801	50.555644376089	64
0	801	50.555644376089	65
0	826	52.293775344153	66
0	826	52.293775344153	67
0	851	53.990575839884	68
0	851	53.990575839884	69
0	876	55.351593310598	70
0	876	55.351593310598	71
0	901	57.125467654669	72
0	901	57.125467654669	73
0	926	58.963271522315	74
0	926	58.963271522315	75
0	951	60.227569000449	76
0	951	60.227569000449	77
0	976	61.533140614515	78
0	976	61.533140614515	79
0	1001	63.109896551471	80
0	1001	63.109896551471	81
0	1026	64.516599425234	82
0	1026	64.516599425234	83
0	1051	65.745413098138	84
0	1051	65.745413098138	85
0	1076	67.4565084175	86
0	1076	67.4565084175	87
0	1101	68.469644772241	88
0	1101	68.469644772241	89
0	1126	70.105161934046	90
0	1126	70.105161934046	91
0	1151	71.117765698003	92
0	1151	71.117765698003	93
0	1176	72.366026922947	94
0	1176	72.366026922947	95
0	1201	73.579720155223	96
0	1201	73.579720155223	97
0	1226	75.239783125817	98
0	1226	75.239783125817	99
0	1251	76.717814437467	100
0	1251	76.717814437467	101
0	1276	78.599242935543	102
0	1276	78.599242935543	103
0	1301	79.994339804518	104
0	1301	79.994339804518	105
0	1326	81.894612757609	106
0	1326	81.894612757609	107
0	1351	83.445699932406	108
0	1351	83.445699932406	109
0	1376	85.423417786954	110
0	1376	85.423417786954	111
0	1401	86.825283713292	112
0	1401	86.825283713292	113
0	1426	87.947437787315	114
0	1426	87.947437787315	115
0	1451	89.574293389104	116
0	1451	89.574293389104	117
0	1476	90.95632894675	118
0	1476	90.95632894675	119
0	1501	92.794306914208	120
0	1501	92.794306914208	121
0	1526	94.326725571069	122
0	1526	94.326725571069	123
0	1551	95.430185130217	124
0	1551	95.430185130217	125
0	1576	96.573891803973	126
0	1576	96.573891803973	127
0	1601	97.825924883482	128
0	1601	97.825924883482	129
0	1626	99.6364946462	130
0	1626	99.6364946462	131
0	1651	100.979522755255	132
0	1651	100.979522755255	133
0	1676	102.142699319988	134
0	1676	102.142699319988	135
0	1701	103.571631657311	136
0	1701	103.571631657311	137
0	1726	105.43272332859	138
0	1726	105.43272332859	139
0	1751	107.03199309076	140
0	1751	107.03199309076	141
0	1776	108.939526543373	142
0	1776	108.939526543373	143
0	1801	110.583758570373	144
0	1801	110.583758570373	145
0	1826	112.019950228397	146
0	1826	112.019950228397	147
0	1851	114.000873908054	148
0	1851	114.000873908054	149
0	1876	115.610938990841	150
0	1876	115.610938990841	151
0	1901	117.110871362387	152
0	1901	117.110871362387	153
0	1926	119.055130332363	154
0	1926	119.055130332363	155
0	1951	120.973388919727	156
0	1951	120.973388919727	157
0	1976	122.369842410673	158
0	1976	122.369842410673	159
0	2001	124.243968346509	160
0	2001	124.243968346509	161
0	2026	125.722548562222	162
0	2026	125.722548562222	163
0	2051	127.258557061319	164
0	2051	127.258557061319	165
0	2076	128.688231723736	166
0	2076	128.688231723736	167
0	2101	130.461117321978	168
0	2101	130.461117321978	169
0	2126	132.288201015562	170
0	2126	132.288201015562	171
0	2151	134.130646823093	172
0	2151	134.130646823093	173
0	2176	135.202471948115	174
0	2176	135.202471948115	175
0	2201	136.364319662915	176
0	2201	136.364319662915	177
0	2226	138.00962934911	178
0	2226	138.00962934911	179
0	2251	139.449976432489	180
0	2251	139.449976432489	181
0	2276	140.652092996871	182
0	2276	140.652092996871	183
0	2301	142.458256164219	184
0	2301	142.458256164219	185
0	2326	143.600434028197	186
0	2326	143.600434028197	187
0	2351	144.973841156231	188
0	2351	144.973841156231	189
0	2376	146.774741652773	190
0	2376	146.774741652773	191
0	2401	148.10458621348	192
0	2401	148.10458621348	193
0	2426	149.943632257755	194
0	2426	149.943632257755	195
0	2451	151.313937946807	196
0	2451	151.313937946807	197
0	2476	152.63940230699	198
0	2476	152.63940230699	199
0	2501	153.948648695487	200
0	2501	153.948648695487	201
0	2526	155.230961690543	202
0	2526	155.230961690543	203
0	2551	156.821482236383	204
0	2551	156.821482236383	205
0	2576	157.931767885226	206
0	2576	157.931767885226	207
0	2601	159.116750854652	208
0	2601	159.116750854652	209
0	2626	160.258918776994	210
0	2626	160.258918776994	211
0	2651	161.593338174398	212
0	2651	161.593338174398	213
0	2676	162.601462294233	214
0	2676	162.601462294233	215
0	2701	163.992072792144	216
0	2701	163.992072792144	217
0	2726	165.148409836811	218
0	2726	165.148409836811	219
0	2751	166.425216295642	220
0	2751	166.425216295642	221
0	2776	167.645107731342	222
0	2776	167.645107731342	223
0	2801	168.674073918609	224
0	2801	168.674073918609	225
0	2826	170.121295523949	226
0	2826	170.121295523949	227
0	2851	172.05449785956	228
0	2851	172.05449785956	229
0	2876	173.719881675558	230
0	2876	173.719881675558	231
0	2901	174.945688601004	232
0	2901	174.945688601004	233
0	2926	176.07909408666	234
0	2926	176.07909408666	235
0	2951	177.088967062652	236
0	2951	177.088967062652	237
0	2976	178.35862153664	238
0	2976	178.35862153664	239
0	3001	179.642166048174	240
0	3001	179.642166048174	241
0	3026	180.815932166415	242
0	3026	180.815932166415	243
0	3051	181.993361706498	244
0	3051	181.993361706498	245
0	3076	183.524223672344	246
0	3076	183.524223672344	247
0	3101	184.61216235615	248
0	3101	184.61216235615	249
0	3126	186.026315171157	250
0	3126	186.026315171157	251
0	3151	187.851173732315	252
0	3151	187.851173732315	253
0	3176	189.02599550516	254
0	3176	189.02599550516	255
0	3201	190.987568040496	256
0	3201	190.987568040496	257
0	3226	192.862066190109	258
0	3226	192.862066190109	259
0	3251	194.031280372409	260
0	3251	194.031280372409	261
0	3276	195.650125388406	262
0	3276	195.650125388406	263
0	3301	197.129862953793	264
0	3301	197.129862953793	265
0	3326	198.453480170225	266
0	3326	198.453480170225	267
0	3351	200.365243344684	268
0	3351	200.365243344684	269
0	3376	201.605378251173	270
0	3376	201.605378251173	271
0	3401	203.484444656525	272
0	3401	203.484444656525	273
0	3426	204.921381341642	274
0	3426	204.921381341642	275
0	3451	206.423776348703	276
0	3451	206.423776348703	277
0	3476	208.163103325874	278
0	3476	208.163103325874	279
0	3501	209.457915337872	280
0	3501	209.457915337872	281
0	3526	211.301782430964	282
0	3526	211.301782430964	283
0	3551	212.949335415032	284
0	3551	212.949335415032	285
0	3576	214.055562625056	286
0	3576	214.055562625056	287
0	3601	215.407187537406	288
0	3601	215.407187537406	289
0	3626	217.059708436601	290
0	3626	217.059708436601	291
0	3651	218.424982898984	292
0	3651	218.424982898984	293
0	3676	220.242302596917	294
0	3676	220.242302596917	295
0	3701	221.891769406268	296
0	3701	221.891769406268	297
0	3726	223.268911994643	298
0	3726	223.268911994643	299
0	3751	225.249991753719	300
0	3751	225.249991753719	301
0	3776	226.623100235242	302
0	3776	226.623100235242	303
0	3801	228.569155265227	304
0	3801	228.569155265227	305
0	3826	230.062538689816	306
0	3826	230.062538689816	307
0	3851	231.910259703057	308
0	3851	231.910259703057	309
0	3876	233.066755527048	310
0	3876	233.066755527048	311
0	3901	234.6861476911	312
0	3901	234.6861476911	313
0	3926	235.981384946616	314
0	3926	235.981384946616	315
0	3951	237.859186370508	316
0	3951	237.859186370508	317
0	3976	239.390426617465	318
0	3976	239.390426617465	319
1	4	0.100605265509	0
1	4	0.100605265509	1
1	33	2.107519791022	2
1	33	2.107519791022	3
1	54	3.97772540033	4
1	54	3.97772540033	5
1	92	5.848656442221	6
1	92	5.848656442221	7
1	104	6.846101016234	8
1	104	6.846101016234	9
1	130	7.913271095907	10
1	130	7.913271095907	11
1	155	9.328237070347	12
1	155	9.328237070347	13
1	179	10.973291571696	14
1	179	10.973291571696	15
1	208	12.647860045113	16
1	208	12.647860045113	17
1	235	14.228232084213	18
1	235	14.228232084213	19
1	254	15.914228076736	20
1	254	15.914228076736	21
1	279	17.150849541066	22
1	279	17.150849541066	23
1	304	19.009477617369	24
1	304	19.009477617369	25
1	329	20.300813655281	26
1	329	20.300813655281	27
1	354	22.13102575889	28
1	354	22.13102575889	29
1	379	24.049106447807	30
1	379	24.049106447807	31
1	404	25.570801401972	32
1	404	25.570801401972	33
1	430	27.502966522189	34
1	430	27.502966522189	35
1	454	28.625014662964	36
1	454	28.625014662964	37
1	479	29.980622306704	38
1	479	29.980622306704	39
1	504	31.413451442933	40
1	504	31.413451442933	41
1	529	33.281925305499	42
1	529	33.281925305499	43
1	554	34.976186925844	44
1	554	34.976186925844	45
1	579	36.668093455134	46
1	579	36.668093455134	47
1	608	38.244060717082	48
1	608	38.244060717082	49
1	630	40.105275649007	50
1	630	40.105275649007	51
1	655	41.220651897536	52
1	655	41.220651897536	53
1	684	42.446887663531	54
1	684	42.446887663531	55
1	705	44.275217832712	56
1	705	44.275217832712	57
1	729	46.2511397606	58
1	729	46.2511397606	59
1	754	47.789116980079	60
1	754	47.789116980079	61
1	779	49.511097008487	62
1	779	49.511097008487	63
1	805	50.573950295327	64
1	805	50.573950295327	65
1	829	52.307967751469	66
1	829	52.307967751469	67
1	858	54.043960006133	68
1	858	54.043960006133	69
1	880	55.37123011055	70
1	880	55.37123011055	71
1	904	57.143565798488	72
1	904	57.143565798488	73
1	929	58.976990673665	74
1	929	58.976990673665	75
1	955	60.248068752883	76
1	955	60.248068752883	77
1	980	61.550423542641	78
1	980	61.550423542641	79
1	1004	63.121535350471	80
1	1004	63.121535350471	81
1	1029	64.533476049507	82
1	1029	64.533476049507	83
1	1054	65.756121948961	84
1	1054	65.756121948961	85
1	1080	67.473282569418	86
1	1080	67.473282569418	87
1	1105	68.482565345528	88
1	1105	68.482565345528	89
1	1130	70.126771329773	90
1	1130	70.126771329773	91
1	1158	71.144144654318	92
1	1158	71.144144654318	93
1	1179	72.379717897158	94
1	1179	72.379717897158	95
1	1204	73.591560421289	96
1	1204	73.591560421289	97
1	1238	75.28709830323	98
1	1238	75.28709830323	99
1	1259	76.760060262854	100
1	1259	76.760060262854	101
1	1279	78.610077878321	102
1	1279	78.610077878321	103
1	1304	80.013512212179	104
1	1304	80.013512212179	105
1	1333	81.918850479104	106
1	1333	81.918850479104	107
1	1354	83.456660177575	108
1	1354	83.456660177575	109
1	1379	85.433448964095	110
1	1379	85.433448964095	111
1	1410	86.865232047302	112
1	1410	86.865232047302	113
1	1429	87.963374227197	114
1	1429	87.963374227197	115
1	1455	89.59537662207	116
1	1455	89.59537662207	117
1	1495	91.011741570475	118
1	1495	91.011741570475	119
1	1504	92.81793508539	120
1	1504	92.81793508539	121
1	1529	94.33686749639	122
1	1529	94.33686749639	123
1	1567	95.47114765119	124
1	1567	95.47114765119	125
1	1579	96.589564679351	126
1	1579	96.589564679351	127
1	1604	97.838761695728	128
1	1604	97.838761695728	129
1	1629	99.648415169423	130
1	1629	99.648415169423	131
1	1654	100.992217240267	132
1	1654	100.992217240267	133
1	1679	102.154460855357	134
1	1679	102.154460855357	135
1	1704	103.594405148317	136
1	1704	103.594405148317	137
1	1729	105.456631214696	138
1	1729	105.456631214696	139
1	1755	107.052915698284	140
1	1755	107.052915698284	141
1	1779	108.952129872094	142
1	1779	108.952129872094	143
1	1816	110.629414583161	144
1	1816	110.629414583161	145
1	1829	112.035962040524	146
1	1829	112.035962040524	147
1	1855	114.031261287868	148
1	1855	114.031261287868	149
1	1879	115.622489249732	150
1	1879	115.622489249732	151
1	1905	117.129654799148	152
1	1905	117.129654799148	153
1	1930	119.065859625299	154
1	1930	119.065859625299	155
1	1954	120.987215164907	156
1	1954	120.987215164907	157
1	1979	122.39658256457	158
1	1979	122.39658256457	159
1	2005	124.259447428654	160
1	2005	124.259447428654	161
1	2030	125.733996428579	162
1	2030	125.733996428579	163
1	2059	127.287415333857	164
1	2059	127.287415333857	165
1	2079	128.69867428321	166
1	2079	128.69867428321	167
1	2104	130.474122387816	168
1	2104	130.474122387816	169
1	2129	132.305778679172	170
1	2129	132.305778679172	171
1	2154	134.141242322615	172
1	2154	134.141242322615	173
1	2179	135.221689596204	174
1	2179	135.221689596204	175
1	2204	136.380019892948	176
1	2204	136.380019892948	177
1	2230	138.028541029814	178
1	2230	138.028541029814	179
1	2254	139.472754171085	180
1	2254	139.472754171085	181
1	2279	140.662927475758	182
1	2279	140.662927475758	183
1	2304	142.478679435513	184
1	2304	142.478679435513	185
1	2333	143.627623570977	186
1	2333	143.627623570977	187
1	2354	144.985845312067	188
1	2354	144.985845312067	189
1	2383	146.807689900431	190
1	2383	146.807689900431	191
1	2410	148.14013741345	192
1	2410	148.14013741345	193
1	2430	149.963697659902	194
1	2430	149.963697659902	195
1	2455	151.334062569435	196
1	2455	151.334062569435	197
1	2480	152.651984805048	198
1	2480	152.651984805048	199
1	2504	153.973896874295	200
1	2504	153.973896874295	201
1	2530	155.25072334919	202
1	2530	155.25072334919	203
1	2555	156.839738740115	204
1	2555	156.839738740115	205
1	2585	157.982274870068	206
1	2585	157.982274870068	207
1	2605	159.135239213417	208
1	2605	159.135239213417	209
1	2638	160.294925293057	210
1	2638	160.294925293057	211
1	2655	161.614053695427	212
1	2655	161.614053695427	213
1	2679	162.622809325862	214
1	2679	162.622809325862	215
1	2705	164.004005172511	216
1	2705	164.004005172511	217
1	2729	165.172891753368	218
1	2729	165.172891753368	219
1	2755	166.440071053099	220
1	2755	166.440071053099	221
1	2779	167.669848298005	222
1	2779	167.669848298005	223
1	2805	168.692664897985	224
1	2805	168.692664897985	225
1	2833	170.150961422694	226
1	2833	170.150961422694	227
1	2855	172.073269756362	228
1	2855	172.073269756362	229
1	2879	173.733231145166	230
1	2879	173.733231145166	231
1	2904	174.957779126822	232
1	2904	174.957779126822	233
1	2929	176.091628177251	234
1	2929	176.091628177251	235
1	2955	177.106800826353	236
1	2955	177.106800826353	237
1	2980	178.376638477014	238
1	2980	178.376638477014	239
1	3013	179.677509107999	240
1	3013	179.677509107999	241
1	3029	180.828558660731	242
1	3029	180.828558660731	243
1	3054	182.00438893145	244
1	3054	182.00438893145	245
1	3079	183.535146893887	246
1	3079	183.535146893887	247
1	3104	184.624371555741	248
1	3104	184.624371555741	249
1	3129	186.038281341655	250
1	3129	186.038281341655	251
1	3159	187.883288072049	252
1	3159	187.883288072049	253
1	3179	189.041209121551	254
1	3179	189.041209121551	255
1	3204	190.999384118173	256
1	3204	190.999384118173	257
1	3229	192.872442949856	258
1	3229	192.872442949856	259
1	3258	194.058405734954	260
1	3258	194.058405734954	261
1	3279	195.668187062493	262
1	3279	195.668187062493	263
1	3319	197.197659851337	264
1	3319	197.197659851337	265
1	3329	198.472987698703	266
1	3329	198.472987698703	267
1	3354	200.380758662199	268
1	3354	200.380758662199	269
1	3379	201.624677635857	270
1	3379	201.624677635857	271
1	3404	203.502106807312	272
1	3404	203.502106807312	273
1	3433	204.94638646758	274
1	3433	204.94638646758	275
1	3454	206.440984820909	276
1	3454	206.440984820909	277
1	3495	208.218866190948	278
1	3495	208.218866190948	279
1	3505	209.474759816936	280
1	3505	209.474759816936	281
1	3529	211.316140268107	282
1	3529	211.316140268107	283
1	3554	212.973333769645	284
1	3554	212.973333769645	285
1	3579	214.083687475759	286
1	3579	214.083687475759	287
1	3609	215.447875921919	288
1	3609	215.447875921919	289
1	3629	217.077337863707	290
1	3629	217.077337863707	291
1	3654	218.440185677385	292
1	3654	218.440185677385	293
1	3679	220.259729871393	294
1	3679	220.259729871393	295
1	3705	221.906743574997	296
1	3705	221.906743574997	297
1	3730	223.286670311019	298
1	3730	223.286670311019	299
1	3755	225.266724013269	300
1	3755	225.266724013269	301
1	3785	226.6495698296	302
1	3785	226.6495698296	303
1	3804	228.606421458496	304
1	3804	228.606421458496	305
1	3829	230.073321666641	306
1	3829	230.073321666641	307
1	3854	231.927565629129	308
1	3854	231.927565629129	309
1	3879	233.087068686099	310
1	3879	233.087068686099	311
1	3905	234.706650563877	312
1	3905	234.706650563877	313
1	3938	236.024637352239	314
1	3938	236.024637352239	315
1	3955	237.883899311996	316
1	3955	237.883899311996	317
1	3984	239.420388222457	318
1	3984	239.420388222457	319
2	7	0.112192361481	0
2	7	0.112192361481	1
2	7	0.112192361481	2
2	35	2.112806916222	3
2	35	2.112806916222	4
2	35	2.112806916222	5
2	62	4.008774430176	6
2	62	4.008774430176	7
2	62	4.008774430176	8
2	83	5.831097330085	9
2	83	5.831097330085	10
2	83	5.831097330085	11
2	111	6.862865355719	12
2	111	6.862865355719	13
2	111	6.862865355719	14
2	134	7.917614898966	15
2	134	7.917614898966	16
2	134	7.917614898966	17
2	161	9.34720267939	18
2	161	9.34720267939	19
2	161	9.34720267939	20
2	183	10.983953689052	21
2	183	10.983953689052	22
2	183	10.983953689052	23
2	215	12.669522756605	24
2	215	12.669522756605	25
2	215	12.669522756605	26
2	234	14.227170102893	27
2	234	14.227170102893	28
2	234	14.227170102893	29
2	257	15.927501786059	30
2	257	15.927501786059	31
2	257	15.927501786059	32
2	283	17.165342213478	33
2	283	17.165342213478	34
2	283	17.165342213478	35
2	311	19.02238549623	36
2	311	19.02238549623	37
2	311	19.02238549623	38
2	333	20.311218578915	39
2	333	20.311218578915	40
2	333	20.311218578915	41
2	358	22.145647450106	42
2	358	22.145647450106	43
2	358	22.145647450106	44
2	383	24.072126407894	45
2	383	24.072126407894	46
2	383	24.072126407894	47
2	411	25.585744491716	48
2	411	25.585744491716	49
2	411	25.585744491716	50
2	436	27.513525777967	51
2	436	27.513525777967	52
2	436	27.513525777967	53
2	461	28.658594828339	54
2	461	28.658594828339	55
2	461	28.658594828339	56
2	487	30.007501711208	57
2	487	30.007501711208	58
2	487	30.007501711208	59
2	508	31.432732953332	60
2	508	31.432732953332	61
2	508	31.432732953332	62
2	533	33.298224725443	63
2	533	33.298224725443	64
2	533	33.298224725443	65
2	561	35.002163936784	66
2	561	35.002163936784	67
2	561	35.002163936784	68
2	583	36.678288533107	69
2	583	36.678288533107	70
2	583	36.678288533107	71
2	609	38.245777306757	72
2	609	38.245777306757	73
2	609	38.245777306757	74
2	634	40.110585871015	75
2	634	40.110585871015	76
2	634	40.110585871015	77
2	662	41.232094976849	78
2	662	41.232094976849	79
2	662	41.232094976849	80
2	683	42.446709285762	81
2	683	42.446709285762	82
2	683	42.446709285762	83
2	712	44.295079900125	84
2	712	44.295079900125	85
2	712	44.295079900125	86
2	737	46.310513470677	87
2	737	46.310513470677	88
2	737	46.310513470677	89
2	758	47.801207374863	90
2	758	47.801207374863	91
2	758	47.801207374863	92
2	783	49.524704861154	93
2	783	49.524704861154	94
2	783	49.524704861154	95
2	811	50.584880693401	96
2	811	50.584880693401	97
2	811	50.584880693401	98
2	833	52.321216821712	99
2	833	52.321216821712	100
2	833	52.321216821712	101
2	862	54.05618597156	102
2	862	54.05618597156	103
2	862	54.05618597156	104
2	887	55.382321655228	105
2	887	55.382321655228	106
2	887	55.382321655228	107
2	911	57.165983322438	108
2	911	57.165983322438	109
2	911	57.165983322438	110
2	944	59.03485040739	111
2	944	59.03485040739	112
2	944	59.03485040739	113
2	962	60.26157423693	114
2	962	60.26157423693	115
2	962	60.26157423693	116
2	987	61.564270316645	117
2	987	61.564270316645	118
2	987	61.564270316645	119
2	1011	63.140877203549	120
2	1011	63.140877203549	121
2	1011	63.140877203549	122
2	1033	64.545436847464	123
2	1033	64.545436847464	124
2	1033	64.545436847464	125
2	1062	65.770828944997	126
2	1062	65.770828944997	127
2	1062	65.770828944997	128
2	1087	67.489664171505	129
2	1087	67.489664171505	130
2	1087	67.489664171505	131
2	1109	68.491355990518	132
2	1109	68.491355990518	133
2	1109	68.491355990518	134
2	1137	70.144945839527	135
2	1137	70.144945839527	136
2	1137	70.144945839527	137
2	1159	71.147606046916	138
2	1159	71.147606046916	139
2	1159	71.147606046916	140
2	1182	72.390309530968	141
2	1182	72.390309530968	142
2	1182	72.390309530968	143
2	1208	73.603887634752	144
2	1208	73.603887634752	145
2	1208	73.603887634752	146
2	1233	75.266360091177	147
2	1233	75.266360091177	148
2	1233	75.266360091177	149
2	1260	76.763669884491	150
2	1260	76.763669884491	151
2	1260	76.763669884491	152
2	1292	78.642377160591	153
2	1292	78.642377160591	154
2	1292	78.642377160591	155
2	1319	80.065993342055	156
2	1319	80.065993342055	157
2	1319	80.065993342055	158
2	1340	81.933971169903	159
2	1340	81.933971169903	160
2	1340	81.933971169903	161
2	1362	83.486172216199	162
2	1362	83.486172216199	163
2	1362	83.486172216199	164
2	1383	85.447883658645	165
2	1383	85.447883658645	166
2	1383	85.447883658645	167
2	1409	86.861330454252	168
2	1409	86.861330454252	169
2	1409	86.861330454252	170
2	1433	87.979591732687	171
2	1433	87.979591732687	172
2	1433	87.979591732687	173
2	1465	89.629481439338	174
2	1465	89.629481439338	175
2	1465	89.629481439338	176
2	1483	90.977054074491	177
2	1483	90.977054074491	178
2	1483	90.977054074491	179
2	1511	92.834698873962	180
2	1511	92.834698873962	181
2	1511	92.834698873962	182
2	1537	94.348530562228	183
2	1537	94.348530562228	184
2	1537	94.348530562228	185
2	1558	95.456672854667	186
2	1558	95.456672854667	187
2	1558	95.456672854667	188
2	1583	96.609076598746	189
2	1583	96.609076598746	190
2	1583	96.609076598746	191
2	1607	97.854669717771	192
2	1607	97.854669717771	193
2	1607	97.854669717771	194
2	1636	99.673184850525	195
2	1636	99.673184850525	196
2	1636	99.673184850525	197
2	1661	101.014503878286	198
2	1661	101.014503878286	199
2	1661	101.014503878286	200
2	1687	102.182062162155	201
2	1687	102.182062162155	202
2	1687	102.182062162155	203
2	1711	103.610765029293	204
2	1711	103.610765029293	205
2	1711	103.610765029293	206
2	1736	105.471933798178	207
2	1736	105.471933798178	208
2	1736	105.471933798178	209
2	1762	107.07334148094	210
2	1762	107.07334148094	211
2	1762	107.07334148094	212
2	1794	108.997922488103	213
2	1794	108.997922488103	214
2	1794	108.997922488103	215
2	1809	110.61904191093	216
2	1809	110.61904191093	217
2	1809	110.61904191093	218
2	1832	112.050350885233	219
2	1832	112.050350885233	220
2	1832	112.050350885233	221
2	1860	114.036126670898	222
2	1860	114.036126670898	223
2	1860	114.036126670898	224
2	1886	115.649978160496	225
2	1886	115.649978160496	226
2	1886	115.649978160496	227
2	1909	117.134668988631	228
2	1909	117.134668988631	229
2	1909	117.134668988631	230
2	1936	119.079101131168	231
2	1936	119.079101131168	232
2	1936	119.079101131168	233
2	1962	121.008345193366	234
2	1962	121.008345193366	235
2	1962	121.008345193366	236
2	1983	122.413292517478	237
2	1983	122.413292517478	238
2	1983	122.413292517478	239
2	2012	124.27115577139	240
2	2012	124.27115577139	241
2	2012	124.27115577139	242
2	2036	125.752998998515	243
2	2036	125.752998998515	244
2	2036	125.752998998515	245
2	2072	127.312074405586	246
2	2072	127.312074405586	247
2	2072	127.312074405586	248
2	2082	128.713058742347	249
2	2082	128.713058742347	250
2	2082	128.713058742347	251
2	2112	130.504557330777	252
2	2112	130.504557330777	253
2	2112	130.504557330777	254
2	2137	132.323317301125	255
2	2137	132.323317301125	256
2	2137	132.323317301125	257
2	2161	134.170555415666	258
2	2161	134.170555415666	259
2	2161	134.170555415666	260
2	2183	135.234148565465	261
2	2183	135.234148565465	262
2	2183	135.234148565465	263
2	2212	136.414982362203	264
2	2212	136.414982362203	265
2	2212	136.414982362203	266
2	2234	138.033654897841	267
2	2234	138.033654897841	268
2	2234	138.033654897841	269
2	2258	139.485821293071	270
2	2258	139.485821293071	271
2	2258	139.485821293071	272
2	2283	140.684741352357	273
2	2283	140.684741352357	274
2	2283	140.684741352357	275
2	2308	142.490623525346	276
2	2308	142.490623525346	277
2	2308	142.490623525346	278
2	2335	143.633909102134	279
2	2335	143.633909102134	280
2	2335	143.633909102134	281
2	2362	145.015846895621	282
2	2362	145.015846895621	283
2	2362	145.015846895621	284
2	2384	146.812893383428	285
2	2384	146.812893383428	286
2	2384	146.812893383428	287
2	2408	148.131355740921	288
2	2408	148.131355740921	289
2	2408	148.131355740921	290
2	2434	149.968068060108	291
2	2434	149.968068060108	292
2	2434	149.968068060108	293
2	2466	151.352247719882	294
2	2466	151.352247719882	295
2	2466	151.352247719882	296
2	2486	152.664881503786	297
2	2486	152.664881503786	298
2	2486	152.664881503786	299
2	2507	153.986833045576	300
2	2507	153.986833045576	301
2	2507	153.986833045576	302
2	2537	155.270173686984	303
2	2537	155.270173686984	304
2	2537	155.270173686984	305
2	2561	156.85176715081	306
2	2561	156.85176715081	307
2	2561	156.85176715081	308
2	2584	157.975981522984	309
2	2584	157.975981522984	310
2	2584	157.975981522984	311
2	2609	159.144967595844	312
2	2609	159.144967595844	313
2	2609	159.144967595844	314
2	2633	160.284714554948	315
2	2633	160.284714554948	316
2	2633	160.284714554948	317
2	2659	161.618798703888	318
2	2659	161.618798703888	319
2	2659	161.618798703888	320
2	2686	162.634508615356	321
2	2686	162.634508615356	322
2	2686	162.634508615356	323
2	2711	164.015600150209	324
2	2711	164.015600150209	325
2	2711	164.015600150209	326
2	2733	165.188425300642	327
2	2733	165.188425300642	328
2	2733	165.188425300642	329
2	2762	166.454341226272	330
2	2762	166.454341226272	331
2	2762	166.454341226272	332
2	2783	167.681809233592	333
2	2783	167.681809233592	334
2	2783	167.681809233592	335
2	2811	168.707406361811	336
2	2811	168.707406361811	337
2	2811	168.707406361811	338
2	2834	170.159876765708	339
2	2834	170.159876765708	340
2	2834	170.159876765708	341
2	2862	172.086837567098	342
2	2862	172.086837567098	343
2	2862	172.086837567098	344
2	2882	173.752584644753	345
2	2882	173.752584644753	346
2	2882	173.752584644753	347
2	2907	174.97952415174	348
2	2907	174.97952415174	349
2	2907	174.97952415174	350
2	2942	176.123869238712	351
2	2942	176.123869238712	352
2	2942	176.123869238712	353
2	2962	177.119981909532	354
2	2962	177.119981909532	355
2	2962	177.119981909532	356
2	2987	178.394958875066	357
2	2987	178.394958875066	358
2	2987	178.394958875066	359
2	3008	179.664104848957	360
2	3008	179.664104848957	361
2	3008	179.664104848957	362
2	3037	180.868484994314	363
2	3037	180.868484994314	364
2	3037	180.868484994314	365
2	3057	182.014544572765	366
2	3057	182.014544572765	367
2	3057	182.014544572765	368
2	3086	183.566696932501	369
2	3086	183.566696932501	370
2	3086	183.566696932501	371
2	3112	184.657150313245	372
2	3112	184.657150313245	373
2	3112	184.657150313245	374
2	3136	186.053485585516	375
2	3136	186.053485585516	376
2	3136	186.053485585516	377
2	3158	187.878441773833	378
2	3158	187.878441773833	379
2	3158	187.878441773833	380
2	3183	189.05530515697	381
2	3183	189.05530515697	382
2	3183	189.05530515697	383
2	3208	191.011414334453	384
2	3208	191.011414334453	385
2	3208	191.011414334453	386
2	3233	192.888941612443	387
2	3233	192.888941612443	388
2	3233	192.888941612443	389
2	3259	194.06393933871	390
2	3259	194.06393933871	391
2	3259	194.06393933871	392
2	3283	195.696115489027	393
2	3283	195.696115489027	394
2	3283	195.696115489027	395
2	3322	197.208409475616	396
2	3322	197.208409475616	397
2	3322	197.208409475616	398
2	3332	198.486166328668	399
2	3332	198.486166328668	400
2	3332	198.486166328668	401
2	3357	200.399611914261	402
2	3357	200.399611914261	403
2	3357	200.399611914261	404
2	3383	201.654054157404	405
2	3383	201.654054157404	406
2	3383	201.654054157404	407
2	3407	203.512438692929	408
2	3407	203.512438692929	409
2	3407	203.512438692929	410
2	3434	204.950042553082	411
2	3434	204.950042553082	412
2	3434	204.950042553082	413
2	3457	206.453914231088	414
2	3457	206.453914231088	415
2	3457	206.453914231088	416
2	3483	208.192598477475	417
2	3483	208.192598477475	418
2	3483	208.192598477475	419
2	3509	209.483939013538	420
2	3509	209.483939013538	421
2	3509	209.483939013538	422
2	3533	211.329026521744	423
2	3533	211.329026521744	424
2	3533	211.329026521744	425
2	3558	212.989914541923	426
2	3558	212.989914541923	427
2	3558	212.989914541923	428
2	3583	214.094819448616	429
2	3583	214.094819448616	430
2	3583	214.094819448616	431
2	3608	215.447762709747	432
2	3608	215.447762709747	433
2	3608	215.447762709747	434
2	3637	217.094135775224	435
2	3637	217.094135775224	436
2	3637	217.094135775224	437
2	3666	218.474701619715	438
2	3666	218.474701619715	439
2	3666	218.474701619715	440
2	3686	220.275767930699	441
2	3686	220.275767930699	442
2	3686	220.275767930699	443
2	3715	221.932261916673	444
2	3715	221.932261916673	445
2	3715	221.932261916673	446
2	3740	223.308450270043	447
2	3740	223.308450270043	448
2	3740	223.308450270043	449
2	3761	225.282392484527	450
2	3761	225.282392484527	451
2	3761	225.282392484527	452
2	3784	226.64748679996	453
2	3784	226.64748679996	454
2	3784	226.64748679996	455
2	3807	228.622623364738	456
2	3807	228.622623364738	457
2	3807	228.622623364738	458
2	3836	230.087338065158	459
2	3836	230.087338065158	460
2	3836	230.087338065158	461
2	3861	231.954021976027	462
2	3861	231.954021976027	463
2	3861	231.954021976027	464
2	3882	233.099114639972	465
2	3882	233.099114639972	466
2	3882	233.099114639972	467
2	3909	234.712176684667	468
2	3909	234.712176684667	469
2	3909	234.712176684667	470
2	3933	236.014208695447	471
2	3933	236.014208695447	472
2	3933	236.014208695447	473
2	3962	237.900992007498	474
2	3962	237.900992007498	475
2	3962	237.900992007498	476
2	3988	239.428920221439	477
2	3988	239.428920221439	478
2	3988	239.428920221439	479
3	11	0.124253507821	0
3	11	0.124253507821	1
3	11	0.124253507821	2
3	47	2.156832407298	3
3	47	2.156832407298	4
3	47	2.156832407298	5
3	69	4.019899944319	6
3	69	4.019899944319	7
3	69	4.019899944319	8
3	88	5.841859276516	9
3	88	5.841859276516	10
3	88	5.841859276516	11
3	120	6.881764413126	12
3	120	6.881764413126	13
3	120	6.881764413126	14
3	141	7.935397336158	15
3	141	7.935397336158	16
3	141	7.935397336158	17
3	166	9.361493574261	18
3	166	9.361493574261	19
3	166	9.361493574261	20
3	190	11.008347268306	21
3	190	11.008347268306	22
3	190	11.008347268306	23
3	216	12.673383972895	24
3	216	12.673383972895	25
3	216	12.673383972895	26
3	239	14.235537401737	27
3	239	14.235537401737	28
3	239	14.235537401737	29
3	270	15.972433513412	30
3	270	15.972433513412	31
3	270	15.972433513412	32
3	290	17.190572910439	33
3	290	17.190572910439	34
3	290	17.190572910439	35
3	322	19.067457740562	36
3	322	19.067457740562	37
3	322	19.067457740562	38
3	341	20.328807741021	39
3	341	20.328807741021	40
3	341	20.328807741021	41
3	366	22.156335984087	42
3	366	22.156335984087	43
3	366	22.156335984087	44
3	390	24.093743791535	45
3	390	24.093743791535	46
3	390	24.093743791535	47
3	422	25.621805940836	48
3	422	25.621805940836	49
3	422	25.621805940836	50
3	440	27.524639466041	51
3	440	27.524639466041	52
3	440	27.524639466041	53
3	466	28.671959614665	54
3	466	28.671959614665	55
3	466	28.671959614665	56
3	491	30.015981665676	57
3	491	30.015981665676	58
3	491	30.015981665676	59
3	516	31.446095743765	60
3	516	31.446095743765	61
3	516	31.446095743765	62
3	541	33.315810506047	63
3	541	33.315810506047	64
3	541	33.315810506047	65
3	566	35.015313897587	66
3	566	35.015313897587	67
3	566	35.015313897587	68
3	591	36.70310999894	69
3	591	36.70310999894	70
3	591	36.70310999894	71
3	620	38.264754741358	72
3	620	38.264754741358	73
3	620	38.264754741358	74
3	641	40.12230063237	75
3	641	40.12230063237	76
3	641	40.12230063237	77
3	672	41.255971751865	78
3	672	41.255971751865	79
3	672	41.255971751865	80
3	691	42.457194029307	81
3	691	42.457194029307	82
3	691	42.457194029307	83
3	716	44.299778038912	84
3	716	44.299778038912	85
3	716	44.299778038912	86
3	741	46.314627151624	87
3	741	46.314627151624	88
3	741	46.314627151624	89
3	765	47.813487757798	90
3	765	47.813487757798	91
3	765	47.813487757798	92
3	791	49.536516359272	93
3	791	49.536516359272	94
3	791	49.536516359272	95
3	815	50.595730543732	96
3	815	50.595730543732	97
3	815	50.595730543732	98
3	841	52.344510432138	99
3	841	52.344510432138	100
3	841	52.344510432138	101
3	866	54.059368988579	102
3	866	54.059368988579	103
3	866	54.059368988579	104
3	894	55.399953548303	105
3	894	55.399953548303	106
3	894	55.399953548303	107
3	915	57.178858152401	108
3	915	57.178858152401	109
3	915	57.178858152401	110
3	940	59.021899129775	111
3	940	59.021899129775	112
3	940	59.021899129775	113
3	966	60.271244109923	114
3	966	60.271244109923	115
3	966	60.271244109923	116
3	995	61.596264169751	117
3	995	61.596264169751	118
3	995	61.596264169751	119
3	1019	63.162979679081	120
3	1019	63.162979679081	121
3	1019	63.162979679081	122
3	1040	64.561463411949	123
3	1040	64.561463411949	124
3	1040	64.561463411949	125
3	1069	65.781582362074	126
3	1069	65.781582362074	127
3	1069	65.781582362074	128
3	1097	67.510856683158	129
3	1097	67.510856683158	130
3	1097	67.510856683158	131
3	1120	68.516059272171	132
3	1120	68.516059272171	133
3	1120	68.516059272171	134
3	1147	70.167381910073	135
3	1147	70.167381910073	136
3	1147	70.167381910073	137
3	1165	71.16102535644	138
3	1165	71.16102535644	139
3	1165	71.16102535644	140
3	1190	72.402325728174	141
3	1190	72.402325728174	142
3	1190	72.402325728174	143
3	1215	73.61751913603	144
3	1215	73.61751913603	145
3	1215	73.61751913603	146
3	1237	75.282273406964	147
3	1237	75.282273406964	148
3	1237	75.282273406964	149
3	1264	76.768871578414	150
3	1264	76.768871578414	151
3	1264	76.768871578414	152
3	1291	78.641059688977	153
3	1291	78.641059688977	154
3	1291	78.641059688977	155
3	1315	80.055933681696	156
3	1315	80.055933681696	157
3	1315	80.055933681696	158
3	1341	81.938267168264	159
3	1341	81.938267168264	160
3	1341	81.938267168264	161
3	1372	83.50264900224	162
3	1372	83.50264900224	163
3	1372	83.50264900224	164
3	1390	85.462291274187	165
3	1390	85.462291274187	166
3	1390	85.462291274187	167
3	1420	86.880216817332	168
3	1420	86.880216817332	169
3	1420	86.880216817332	170
3	1440	87.990998316108	171
3	1440	87.990998316108	172
3	1440	87.990998316108	173
3	1472	89.651104784901	174
3	1472	89.651104784901	175
3	1472	89.651104784901	176
3	1488	90.987160922691	177
3	1488	90.987160922691	178
3	1488	90.987160922691	179
3	1519	92.849773696776	180
3	1519	92.849773696776	181
3	1519	92.849773696776	182
3	1544	94.370324653585	183
3	1544	94.370324653585	184
3	1544	94.370324653585	185
3	1566	95.470534176609	186
3	1566	95.470534176609	187
3	1566	95.470534176609	188
3	1594	96.62803875942	189
3	1594	96.62803875942	190
3	1594	96.62803875942	191
3	1612	97.867940752877	192
3	1612	97.867940752877	193
3	1612	97.867940752877	194
3	1645	99.697015745707	195
3	1645	99.697015745707	196
3	1645	99.697015745707	197
3	1666	101.026122561401	198
3	1666	101.026122561401	199
3	1666	101.026122561401	200
3	1695	102.197014408227	201
3	1695	102.197014408227	202
3	1695	102.197014408227	203
3	1715	103.622410531838	204
3	1715	103.622410531838	205
3	1715	103.622410531838	206
3	1741	105.483136245776	207
3	1741	105.483136245776	208
3	1741	105.483136245776	209
3	1766	107.077728886257	210
3	1766	107.077728886257	211
3	1766	107.077728886257	212
3	1793	108.997890059807	213
3	1793	108.997890059807	214
3	1793	108.997890059807	215
3	1819	110.64015977965	216
3	1819	110.64015977965	217
3	1819	110.64015977965	218
3	1841	112.066803915794	219
3	1841	112.066803915794	220
3	1841	112.066803915794	221
3	1869	114.048836926078	222
3	1869	114.048836926078	223
3	1869	114.048836926078	224
3	1891	115.664136748328	225
3	1891	115.664136748328	226
3	1891	115.664136748328	227
3	1919	117.148540717701	228
3	1919	117.148540717701	229
3	1919	117.148540717701	230
3	1941	119.095524747707	231
3	1941	119.095524747707	232
3	1941	119.095524747707	233
3	1970	121.020424619978	234
3	1970	121.020424619978	235
3	1970	121.020424619978	236
3	1991	122.437268976485	237
3	1991	122.437268976485	238
3	1991	122.437268976485	239
3	2020	124.284284825313	240
3	2020	124.284284825313	241
3	2020	124.284284825313	242
3	2045	125.775433270246	243
3	2045	125.775433270246	244
3	2045	125.775433270246	245
3	2063	127.292943766594	246
3	2063	127.292943766594	247
3	2063	127.292943766594	248
3	2090	128.754864255107	249
3	2090	128.754864255107	250
3	2090	128.754864255107	251
3	2120	130.517549381069	252
3	2120	130.517549381069	253
3	2120	130.517549381069	254
3	2147	132.354309510431	255
3	2147	132.354309510431	256
3	2147	132.354309510431	257
3	2166	134.181778256371	258
3	2166	134.181778256371	259
3	2166	134.181778256371	260
3	2191	135.252097562871	261
3	2191	135.252097562871	262
3	2191	135.252097562871	263
3	2222	136.437708256809	264
3	2222	136.437708256809	265
3	2222	136.437708256809	266
3	2244	138.062989835188	267
3	2244	138.062989835188	268
3	2244	138.062989835188	269
3	2269	139.504605157293	270
3	2269	139.504605157293	271
3	2269	139.504605157293	272
3	2291	140.696146017351	273
3	2291	140.696146017351	274
3	2291	140.696146017351	275
3	2319	142.51013042953	276
3	2319	142.51013042953	277
3	2319	142.51013042953	278
3	2345	143.648172356874	279
3	2345	143.648172356874	280
3	2345	143.648172356874	281
3	2372	145.046833237989	282
3	2372	145.046833237989	283
3	2372	145.046833237989	284
3	2390	146.824232346391	285
3	2390	146.824232346391	286
3	2390	146.824232346391	287
3	2422	148.189570371513	288
3	2422	148.189570371513	289
3	2422	148.189570371513	290
3	2440	149.979179486432	291
3	2440	149.979179486432	292
3	2440	149.979179486432	293
3	2467	151.354157277154	294
3	2467	151.354157277154	295
3	2467	151.354157277154	296
3	2491	152.677913648881	297
3	2491	152.677913648881	298
3	2491	152.677913648881	299
3	2512	154.001666179049	300
3	2512	154.001666179049	301
3	2512	154.001666179049	302
3	2545	155.286184883302	303
3	2545	155.286184883302	304
3	2545	155.286184883302	305
3	2566	156.861851334942	306
3	2566	156.861851334942	307
3	2566	156.861851334942	308
3	2595	158.002081933937	309
3	2595	158.002081933937	310
3	2595	158.002081933937	311
3	2620	159.159974434844	312
3	2620	159.159974434844	313
3	2620	159.159974434844	314
3	2642	160.302760048343	315
3	2642	160.302760048343	316
3	2642	160.302760048343	317
3	2669	161.633723215287	318
3	2669	161.633723215287	319
3	2669	161.633723215287	320
3	2694	162.656934187359	321
3	2694	162.656934187359	322
3	2694	162.656934187359	323
3	2719	164.033564214619	324
3	2719	164.033564214619	325
3	2719	164.033564214619	326
3	2745	165.215741449191	327
3	2745	165.215741449191	328
3	2745	165.215741449191	329
3	2770	166.47100069879	330
3	2770	166.47100069879	331
3	2770	166.47100069879	332
3	2795	167.7109512933	333
3	2795	167.7109512933	334
3	2795	167.7109512933	335
3	2815	168.718338466089	336
3	2815	168.718338466089	337
3	2815	168.718338466089	338
3	2847	170.193493274131	339
3	2847	170.193493274131	340
3	2847	170.193493274131	341
3	2866	172.087865212898	342
3	2866	172.087865212898	343
3	2866	172.087865212898	344
3	2887	173.774363545055	345
3	2887	173.774363545055	346
3	2887	173.774363545055	347
3	2916	175.010185309447	348
3	2916	175.010185309447	349
3	2916	175.010185309447	350
3	2941	176.123120324034	351
3	2941	176.123120324034	352
3	2941	176.123120324034	353
3	2970	177.139947231761	354
3	2970	177.139947231761	355
3	2970	177.139947231761	356
3	2997	178.434586642245	357
3	2997	178.434586642245	358
3	2997	178.434586642245	359
3	3019	179.690542390175	360
3	3019	179.690542390175	361
3	3019	179.690542390175	362
3	3047	180.899616586626	363
3	3047	180.899616586626	364
3	3047	180.899616586626	365
3	3065	182.032562343954	366
3	3065	182.032562343954	367
3	3065	182.032562343954	368
3	3090	183.582493415846	369
3	3090	183.582493415846	370
3	3090	183.582493415846	371
3	3120	184.671308504584	372
3	3120	184.671308504584	373
3	3120	184.671308504584	374
3	3140	186.067255169705	375
3	3140	186.067255169705	376
3	3140	186.067255169705	377
3	3164	187.889354734062	378
3	3164	187.889354734062	379
3	3164	187.889354734062	380
3	3195	189.079301936374	381
3	3195	189.079301936374	382
3	3195	189.079301936374	383
3	3215	191.021695363952	384
3	3215	191.021695363952	385
3	3215	191.021695363952	386
3	3240	192.899704695038	387
3	3240	192.899704695038	388
3	3240	192.899704695038	389
3	3270	194.081041906105	390
3	3270	194.081041906105	391
3	3270	194.081041906105	392
3	3290	195.707084295952	393
3	3290	195.707084295952	394
3	3290	195.707084295952	395
3	3312	197.18091798382	396
3	3312	197.18091798382	397
3	3312	197.18091798382	398
3	3337	198.496274374427	399
3	3337	198.496274374427	400
3	3337	198.496274374427	401
3	3362	200.410992771543	402
3	3362	200.410992771543	403
3	3362	200.410992771543	404
3	3390	201.668627633466	405
3	3390	201.668627633466	406
3	3390	201.668627633466	407
3	3412	203.530775534521	408
3	3412	203.530775534521	409
3	3412	203.530775534521	410
3	3440	204.964918688211	411
3	3440	204.964918688211	412
3	3440	204.964918688211	413
3	3461	206.48867359594	414
3	3461	206.48867359594	415
3	3461	206.48867359594	416
3	3491	208.205276850973	417
3	3491	208.205276850973	418
3	3491	208.205276850973	419
3	3515	209.49444559464	420
3	3515	209.49444559464	421
3	3515	209.49444559464	422
3	3541	211.339139040069	423
3	3541	211.339139040069	424
3	3541	211.339139040069	425
3	3565	213.008000537362	426
3	3565	213.008000537362	427
3	3565	213.008000537362	428
3	3595	214.1361740823	429
3	3595	214.1361740823	430
3	3595	214.1361740823	431
3	3616	215.462539268977	432
3	3616	215.462539268977	433
3	3616	215.462539268977	434
3	3645	217.111277988923	435
3	3645	217.111277988923	436
3	3645	217.111277988923	437
3	3667	218.476329091577	438
3	3667	218.476329091577	439
3	3667	218.476329091577	440
3	3694	220.294001775933	441
3	3694	220.294001775933	442
3	3694	220.294001775933	443
3	3717	221.936578029921	444
3	3717	221.936578029921	445
3	3717	221.936578029921	446
3	3741	223.311734507445	447
3	3741	223.311734507445	448
3	3741	223.311734507445	449
3	3766	225.314991745063	450
3	3766	225.314991745063	451
3	3766	225.314991745063	452
3	3797	226.670721873594	453
3	3797	226.670721873594	454
3	3797	226.670721873594	455
3	3811	228.64115383726	456
3	3811	228.64115383726	457
3	3811	228.64115383726	458
3	3847	230.157779336845	459
3	3847	230.157779336845	460
3	3847	230.157779336845	461
3	3870	231.969622146754	462
3	3870	231.969622146754	463
3	3870	231.969622146754	464
3	3887	233.12511917604	465
3	3887	233.12511917604	466
3	3887	233.12511917604	467
3	3919	234.728666800155	468
3	3919	234.728666800155	469
3	3919	234.728666800155	470
3	3947	236.046869297529	471
3	3947	236.046869297529	472
3	3947	236.046869297529	473
3	3972	237.93803469135	474
3	3972	237.93803469135	475
3	3972	237.93803469135	476
3	3991	239.434592120544	477
3	3991	239.434592120544	478
3	3991	239.434592120544	479
4	12	0.126198958082	0
4	12	0.126198958082	1
4	12	0.126198958082	2
4	29	2.096696684112	3
4	29	2.096696684112	4
4	29	2.096696684112	5
4	57	3.992232688951	6
4	57	3.992232688951	7
4	57	3.992232688951	8
4	79	5.817552053311	9
4	79	5.817552053311	10
4	79	5.817552053311	11
4	105	6.8468440696	12
4	105	6.8468440696	13
4	105	6.8468440696	14
4	129	7.906107064012	15
4	129	7.906107064012	16
4	129	7.906107064012	17
4	154	9.324256481115	18
4	154	9.324256481115	19
4	154	9.324256481115	20
4	180	10.981793329674	21
4	180	10.981793329674	22
4	180	10.981793329674	23
4	204	12.635604751767	24
4	204	12.635604751767	25
4	204	12.635604751767	26
4	229	14.214830985836	27
4	229	14.214830985836	28
4	229	14.214830985836	29
4	261	15.945283313528	30
4	261	15.945283313528	31
4	261	15.945283313528	32
4	280	17.156473288632	33
4	280	17.156473288632	34
4	280	17.156473288632	35
4	305	19.01074228405	36
4	305	19.01074228405	37
4	305	19.01074228405	38
4	330	20.302331555207	39
4	330	20.302331555207	40
4	330	20.302331555207	41
4	355	22.135808846009	42
4	355	22.135808846009	43
4	355	22.135808846009	44
4	382	24.071927846427	45
4	382	24.071927846427	46
4	382	24.071927846427	47
4	405	25.572996463964	48
4	405	25.572996463964	49
4	405	25.572996463964	50
4	429	27.497372333756	51
4	429	27.497372333756	52
4	429	27.497372333756	53
4	457	28.644911308542	54
4	457	28.644911308542	55
4	457	28.644911308542	56
4	482	29.993304716254	57
4	482	29.993304716254	58
4	482	29.993304716254	59
4	507	31.42593709818	60
4	507	31.42593709818	61
4	507	31.42593709818	62
4	532	33.298015494946	63
4	532	33.298015494946	64
4	532	33.298015494946	65
4	555	34.97928710504	66
4	555	34.97928710504	67
4	555	34.97928710504	68
4	580	36.673984739168	69
4	580	36.673984739168	70
4	580	36.673984739168	71
4	604	38.234022201482	72
4	604	38.234022201482	73
4	604	38.234022201482	74
4	629	40.10049634466	75
4	629	40.10049634466	76
4	629	40.10049634466	77
4	654	41.211477841445	78
4	654	41.211477841445	79
4	654	41.211477841445	80
4	679	42.434474457101	81
4	679	42.434474457101	82
4	679	42.434474457101	83
4	704	44.275074931044	84
4	704	44.275074931044	85
4	704	44.275074931044	86
4	732	46.277802604265	87
4	732	46.277802604265	88
4	732	46.277802604265	89
4	755	47.798936164046	90
4	755	47.798936164046	91
4	755	47.798936164046	92
4	780	49.515818205953	93
4	780	49.515818205953	94
4	780	49.515818205953	95
4	804	50.568625780374	96
4	804	50.568625780374	97
4	804	50.568625780374	98
4	832	52.318308723196	99
4	832	52.318308723196	100
4	832	52.318308723196	101
4	854	54.032444744409	102
4	854	54.032444744409	103
4	854	54.032444744409	104
4	879	55.362935957232	105
4	879	55.362935957232	106
4	879	55.362935957232	107
4	905	57.14737510788	108
4	905	57.14737510788	109
4	905	57.14737510788	110
4	932	58.990369032761	111
4	932	58.990369032761	112
4	932	58.990369032761	113
4	954	60.244191719215	114
4	954	60.244191719215	115
4	954	60.244191719215	116
4	979	61.546872203879	117
4	979	61.546872203879	118
4	979	61.546872203879	119
4	1005	63.124303486858	120
4	1005	63.124303486858	121
4	1005	63.124303486858	122
4	1030	64.537508919317	123
4	1030	64.537508919317	124
4	1030	64.537508919317	125
4	1055	65.757563123075	126
4	1055	65.757563123075	127
4	1055	65.757563123075	128
4	1079	67.470862601379	129
4	1079	67.470862601379	130
4	1079	67.470862601379	131
4	1104	68.480022704434	132
4	1104	68.480022704434	133
4	1104	68.480022704434	134
4	1129	70.126323685487	135
4	1129	70.126323685487	136
4	1129	70.126323685487	137
4	1154	71.13326076882	138
4	1154	71.13326076882	139
4	1154	71.13326076882	140
4	1183	72.39060630949	141
4	1183	72.39060630949	142
4	1183	72.39060630949	143
4	1205	73.601434416407	144
4	1205	73.601434416407	145
4	1205	73.601434416407	146
4	1229	75.251132279075	147
4	1229	75.251132279075	148
4	1229	75.251132279075	149
4	1254	76.744578537967	150
4	1254	76.744578537967	151
4	1254	76.744578537967	152
4	1280	78.61281084283	153
4	1280	78.61281084283	154
4	1280	78.61281084283	155
4	1307	80.026718677123	156
4	1307	80.026718677123	157
4	1307	80.026718677123	158
4	1329	81.907054095841	159
4	1329	81.907054095841	160
4	1329	81.907054095841	161
4	1355	83.461071698624	162
4	1355	83.461071698624	163
4	1355	83.461071698624	164
4	1382	85.445368182681	165
4	1382	85.445368182681	166
4	1382	85.445368182681	167
4	1404	86.845217359318	168
4	1404	86.845217359318	169
4	1404	86.845217359318	170
4	1432	87.978422846321	171
4	1432	87.978422846321	172
4	1432	87.978422846321	173
4	1454	89.590875966856	174
4	1454	89.590875966856	175
4	1454	89.590875966856	176
4	1479	90.966408591855	177
4	1479	90.966408591855	178
4	1479	90.966408591855	179
4	1505	92.822413198544	180
4	1505	92.822413198544	181
4	1505	92.822413198544	182
4	1530	94.33828410539	183
4	1530	94.33828410539	184
4	1530	94.33828410539	185
4	1554	95.443909801047	186
4	1554	95.443909801047	187
4	1554	95.443909801047	188
4	1582	96.599635199132	189
4	1582	96.599635199132	190
4	1582	96.599635199132	191
4	1608	97.862977714187	192
4	1608	97.862977714187	193
4	1608	97.862977714187	194
4	1632	99.661624307181	195
4	1632	99.661624307181	196
4	1632	99.661624307181	197
4	1655	100.999686010103	198
4	1655	100.999686010103	199
4	1655	100.999686010103	200
4	1680	102.159576721948	201
4	1680	102.159576721948	202
4	1680	102.159576721948	203
4	1705	103.598437465559	204
4	1705	103.598437465559	205
4	1705	103.598437465559	206
4	1730	105.461692521445	207
4	1730	105.461692521445	208
4	1730	105.461692521445	209
4	1754	107.052301528246	210
4	1754	107.052301528246	211
4	1754	107.052301528246	212
4	1780	108.953844477758	213
4	1780	108.953844477758	214
4	1780	108.953844477758	215
4	1804	110.60091343468	216
4	1804	110.60091343468	217
4	1804	110.60091343468	218
4	1833	112.050736850992	219
4	1833	112.050736850992	220
4	1833	112.050736850992	221
4	1854	114.022994729669	222
4	1854	114.022994729669	223
4	1854	114.022994729669	224
4	1882	115.63594923175	225
4	1882	115.63594923175	226
4	1882	115.63594923175	227
4	1904	117.124501840609	228
4	1904	117.124501840609	229
4	1904	117.124501840609	230
4	1929	119.06553572669	231
4	1929	119.06553572669	232
4	1929	119.06553572669	233
4	1955	120.996878060421	234
4	1955	120.996878060421	235
4	1955	120.996878060421	236
4	1982	122.410029476312	237
4	1982	122.410029476312	238
4	1982	122.410029476312	239
4	2004	124.254816813553	240
4	2004	124.254816813553	241
4	2004	124.254816813553	242
4	2029	125.732955323117	243
4	2029	125.732955323117	244
4	2029	125.732955323117	245
4	2054	127.271755484129	246
4	2054	127.271755484129	247
4	2054	127.271755484129	248
4	2083	128.716646820517	249
4	2083	128.716646820517	250
4	2083	128.716646820517	251
4	2105	130.481898345854	252
4	2105	130.481898345854	253
4	2105	130.481898345854	254
4	2130	132.307833420438	255
4	2130	132.307833420438	256
4	2130	132.307833420438	257
4	2155	134.145700587407	258
4	2155	134.145700587407	259
4	2155	134.145700587407	260
4	2180	135.231107028364	261
4	2180	135.231107028364	262
4	2180	135.231107028364	263
4	2205	136.385135121094	264
4	2205	136.385135121094	265
4	2205	136.385135121094	266
4	2229	138.020984519397	267
4	2229	138.020984519397	268
4	2229	138.020984519397	269
4	2255	139.479170751014	270
4	2255	139.479170751014	271
4	2255	139.479170751014	272
4	2282	140.676021772811	273
4	2282	140.676021772811	274
4	2282	140.676021772811	275
4	2305	142.480941807282	276
4	2305	142.480941807282	277
4	2305	142.480941807282	278
4	2329	143.612588854968	279
4	2329	143.612588854968	280
4	2329	143.612588854968	281
4	2355	144.991751403227	282
4	2355	144.991751403227	283
4	2355	144.991751403227	284
4	2379	146.796232534025	285
4	2379	146.796232534025	286
4	2379	146.796232534025	287
4	2404	148.119151359048	288
4	2404	148.119151359048	289
4	2404	148.119151359048	290
4	2429	149.954949517778	291
4	2429	149.954949517778	292
4	2429	149.954949517778	293
4	2454	151.325037212938	294
4	2454	151.325037212938	295
4	2454	151.325037212938	296
4	2479	152.649409953771	297
4	2479	152.649409953771	298
4	2479	152.649409953771	299
4	2511	153.998818024672	300
4	2511	153.998818024672	301
4	2511	153.998818024672	302
4	2529	155.243744178648	303
4	2529	155.243744178648	304
4	2529	155.243744178648	305
4	2554	156.838159484866	306
4	2554	156.838159484866	307
4	2554	156.838159484866	308
4	2579	157.960363558539	309
4	2579	157.960363558539	310
4	2579	157.960363558539	311
4	2604	159.129978247406	312
4	2604	159.129978247406	313
4	2604	159.129978247406	314
4	2629	160.271377385045	315
4	2629	160.271377385045	316
4	2629	160.271377385045	317
4	2654	161.607859654584	318
4	2654	161.607859654584	319
4	2654	161.607859654584	320
4	2680	162.623378458239	321
4	2680	162.623378458239	322
4	2680	162.623378458239	323
4	2704	164.002353921513	324
4	2704	164.002353921513	325
4	2704	164.002353921513	326
4	2732	165.183572262955	327
4	2732	165.183572262955	328
4	2732	165.183572262955	329
4	2754	166.437655564973	330
4	2754	166.437655564973	331
4	2754	166.437655564973	332
4	2780	167.676708339299	333
4	2780	167.676708339299	334
4	2780	167.676708339299	335
4	2804	168.688112275507	336
4	2804	168.688112275507	337
4	2804	168.688112275507	338
4	2829	170.133254027523	339
4	2829	170.133254027523	340
4	2829	170.133254027523	341
4	2854	172.066527341301	342
4	2854	172.066527341301	343
4	2854	172.066527341301	344
4	2886	173.765397390723	345
4	2886	173.765397390723	346
4	2886	173.765397390723	347
4	2911	174.99024806583	348
4	2911	174.99024806583	349
4	2911	174.99024806583	350
4	2930	176.092008865755	351
4	2930	176.092008865755	352
4	2930	176.092008865755	353
4	2954	177.105621722785	354
4	2954	177.105621722785	355
4	2954	177.105621722785	356
4	2979	178.371832329293	357
4	2979	178.371832329293	358
4	2979	178.371832329293	359
4	3004	179.653492930657	360
4	3004	179.653492930657	361
4	3004	179.653492930657	362
4	3032	180.843160850071	363
4	3032	180.843160850071	364
4	3032	180.843160850071	365
4	3058	182.021719691952	366
4	3058	182.021719691952	367
4	3058	182.021719691952	368
4	3082	183.554624048357	369
4	3082	183.554624048357	370
4	3082	183.554624048357	371
4	3107	184.636650772739	372
4	3107	184.636650772739	373
4	3107	184.636650772739	374
4	3130	186.039625870913	375
4	3130	186.039625870913	376
4	3130	186.039625870913	377
4	3154	187.867561294186	378
4	3154	187.867561294186	379
4	3154	187.867561294186	380
4	3180	189.049091896695	381
4	3180	189.049091896695	382
4	3180	189.049091896695	383
4	3207	191.011184698648	384
4	3207	191.011184698648	385
4	3207	191.011184698648	386
4	3232	192.882561587661	387
4	3232	192.882561587661	388
4	3232	192.882561587661	389
4	3254	194.045987781268	390
4	3254	194.045987781268	391
4	3254	194.045987781268	392
4	3282	195.689439204502	393
4	3282	195.689439204502	394
4	3282	195.689439204502	395
4	3304	197.1552265127	396
4	3304	197.1552265127	397
4	3304	197.1552265127	398
4	3333	198.492039677739	399
4	3333	198.492039677739	400
4	3333	198.492039677739	401
4	3361	200.410291244156	402
4	3361	200.410291244156	403
4	3361	200.410291244156	404
4	3382	201.651691477314	405
4	3382	201.651691477314	406
4	3382	201.651691477314	407
4	3411	203.523849871123	408
4	3411	203.523849871123	409
4	3411	203.523849871123	410
4	3429	204.932249890625	411
4	3429	204.932249890625	412
4	3429	204.932249890625	413
4	3462	206.48895712272	414
4	3462	206.48895712272	415
4	3462	206.48895712272	416
4	3479	208.173527957539	417
4	3479	208.173527957539	418
4	3479	208.173527957539	419
4	3504	209.470363227345	420
4	3504	209.470363227345	421
4	3504	209.470363227345	422
4	3530	211.319282178324	423
4	3530	211.319282178324	424
4	3530	211.319282178324	425
4	3557	212.983564440334	426
4	3557	212.983564440334	427
4	3557	212.983564440334	428
4	3580	214.090576439963	429
4	3580	214.090576439963	430
4	3580	214.090576439963	431
4	3604	215.421222783456	432
4	3604	215.421222783456	433
4	3604	215.421222783456	434
4	3630	217.078495775784	435
4	3630	217.078495775784	436
4	3630	217.078495775784	437
4	3655	218.445365719282	438
4	3655	218.445365719282	439
4	3655	218.445365719282	440
4	3680	220.264884315938	441
4	3680	220.264884315938	442
4	3680	220.264884315938	443
4	3704	221.90510267775	444
4	3704	221.90510267775	445
4	3704	221.90510267775	446
4	3729	223.280607729039	447
4	3729	223.280607729039	448
4	3729	223.280607729039	449
4	3754	225.263157686109	450
4	3754	225.263157686109	451
4	3754	225.263157686109	452
4	3779	226.635333996773	453
4	3779	226.635333996773	454
4	3779	226.635333996773	455
4	3812	228.644244350961	456
4	3812	228.644244350961	457
4	3812	228.644244350961	458
4	3830	230.076987809961	459
4	3830	230.076987809961	460
4	3830	230.076987809961	461
4	3857	231.941058847973	462
4	3857	231.941058847973	463
4	3857	231.941058847973	464
4	3886	233.116231529308	465
4	3886	233.116231529308	466
4	3886	233.116231529308	467
4	3904	234.699883532281	468
4	3904	234.699883532281	469
4	3904	234.699883532281	470
4	3929	235.999848134453	471
4	3929	235.999848134453	472
4	3929	235.999848134453	473
4	3954	237.883876056503	474
4	3954	237.883876056503	475
4	3954	237.883876056503	476
4	3979	239.401304949365	477
4	3979	239.401304949365	478
4	3979	239.401304949365	479
5	15	0.134253507821	0
5	25	0.170052069715	1
5	46	2.148461813338	2
5	50	2.166832407298	3
5	73	4.029899944319	4
5	75	4.033005752333	5
5	95	5.851859276516	6
5	100	5.877384993503	7
5	122	6.888006833666	8
5	125	6.891764413126	9
5	148	7.945397336158	10
5	150	7.953328475524	11
5	173	9.371493574261	12
5	175	9.38014731591	13
5	193	11.018347268306	14
5	200	11.055054947083	15
5	223	12.683383972895	16
5	225	12.693189040891	17
5	248	14.245537401737	18
5	250	14.246663583267	19
5	272	15.978893070359	20
5	275	15.982433513412	21
5	294	17.200572910439	22
5	300	17.22477227733	23
5	321	19.056424307029	24
5	325	19.077457740562	25
5	347	20.338807741021	26
5	350	20.355379453131	27
5	373	22.166335984087	28
5	375	22.169169877438	29
5	394	24.103743791535	30
5	400	24.129396318225	31
5	421	25.616862341865	32
5	425	25.631805940836	33
5	443	27.534639466041	34
5	450	27.567539747864	35
5	472	28.681959614665	36
5	475	28.712781519314	37
5	498	30.025981665676	38
5	500	30.034895800631	39
5	522	31.456095743765	40
5	525	31.476444027464	41
5	547	33.325810506047	42
5	550	33.340489205356	43
5	572	35.025313897587	44
5	575	35.036254350437	45
5	598	36.71310999894	46
5	600	36.721515478771	47
5	622	38.271812150171	48
5	625	38.274754741358	49
5	648	40.13230063237	50
5	650	40.140199070086	51
5	671	41.24353411995	52
5	675	41.265971751865	53
5	697	42.467194029307	54
5	700	42.483707987889	55
5	723	44.309778038912	56
5	725	44.31886267711	57
5	748	46.324627151624	58
5	750	46.32875745608	59
5	769	47.823487757798	60
5	775	47.851518640256	61
5	797	49.546516359272	62
5	800	49.561952954052	63
5	818	50.605730543732	64
5	825	50.638149923985	65
5	848	52.354510432138	66
5	850	52.35917407323	67
5	872	54.069368988579	68
5	875	54.079581843289	69
5	898	55.409953548303	70
5	900	55.417640008943	71
5	919	57.188858152401	72
5	925	57.218122001312	73
5	943	59.031899129775	74
5	950	59.051498980366	75
5	973	60.281244109923	76
5	975	60.28537735177	77
5	997	61.605500906686	78
5	1000	61.606264169751	79
5	1022	63.172979679081	80
5	1025	63.192392936935	81
5	1043	64.571463411949	82
5	1050	64.608281511169	83
5	1073	65.791582362074	84
5	1075	65.794777134537	85
5	1096	67.506766487034	86
5	1100	67.520856683158	87
5	1122	68.518824708915	88
5	1125	68.526059272171	89
5	1146	70.164394182855	90
5	1150	70.177381910073	91
5	1169	71.17102535644	92
5	1175	71.199115180678	93
5	1194	72.412325728174	94
5	1200	72.425833127376	95
5	1219	73.62751913603	96
5	1225	73.669557515328	97
5	1242	75.292273406964	98
5	1250	75.314412065213	99
5	1273	76.778871578414	100
5	1275	76.78254590008	101
5	1294	78.650164742833	102
5	1297	78.651059688977	103
5	1318	80.065933681696	104
5	1325	80.090465159752	105
5	1347	81.948267168264	106
5	1350	81.959760316419	107
5	1371	83.498675104354	108
5	1375	83.51264900224	109
5	1394	85.472291274187	110
5	1400	85.484991469457	111
5	1422	86.890099514722	112
5	1425	86.890216817332	113
5	1443	88.000998316108	114
5	1450	88.081893069947	115
5	1471	89.641468945107	116
5	1475	89.661104784901	117
5	1494	90.997160922691	118
5	1500	91.021939116153	119
5	1523	92.859773696776	120
5	1525	92.865522972777	121
5	1548	94.380324653585	122
5	1550	94.384118702529	123
5	1571	95.480534176609	124
5	1575	95.484497297895	125
5	1598	96.63803875942	126
5	1600	96.638138113516	127
5	1618	97.877940752877	128
5	1625	97.909839978102	129
5	1647	99.705293183539	130
5	1650	99.707015745707	131
5	1673	101.036122561401	132
5	1675	101.041601960597	133
5	1697	102.203236958288	134
5	1700	102.207014408227	135
5	1718	103.632410531838	136
5	1725	103.664383922361	137
5	1747	105.493136245776	138
5	1750	105.503887187989	139
5	1772	107.087728886257	140
5	1775	107.118624530207	141
5	1792	108.997531206561	142
5	1797	109.007890059807	143
5	1822	110.65015977965	144
5	1825	110.66472702582	145
5	1847	112.076803915794	146
5	1850	112.086849520193	147
5	1872	114.058836926078	148
5	1875	114.076443235176	149
5	1898	115.674136748328	150
5	1900	115.682770188224	151
5	1923	117.158540717701	152
5	1925	117.159153835992	153
5	1947	119.105524747707	154
5	1950	119.121024399027	155
5	1972	121.028920359075	156
5	1975	121.030424619978	157
5	1997	122.447268976485	158
5	2000	122.458907064653	159
5	2022	124.29129310974	160
5	2025	124.294284825313	161
5	2047	125.783064070201	162
5	2050	125.785433270246	163
5	2069	127.302943766594	164
5	2071	127.309514517822	165
5	2094	128.764864255107	166
5	2100	128.780374960347	167
5	2122	130.521306713468	168
5	2125	130.527549381069	169
5	2146	132.342246692487	170
5	2150	132.364309510431	171
5	2172	134.191778256371	172
5	2175	134.207675616237	173
5	2197	135.262097562871	174
5	2200	135.280283600989	175
5	2221	136.434986201546	176
5	2225	136.447708256809	177
5	2247	138.072989835188	178
5	2250	138.129871634513	179
5	2273	139.514605157293	180
5	2275	139.515255882614	181
5	2297	140.706146017351	182
5	2300	140.721470905986	183
5	2323	142.52013042953	184
5	2325	142.521277049101	185
5	2347	143.654660592612	186
5	2350	143.658172356874	187
5	2371	145.035414033441	188
5	2375	145.056833237989	189
5	2394	146.834232346391	190
5	2400	146.866959295822	191
5	2421	148.164216466751	192
5	2425	148.199570371513	193
5	2444	149.989179486432	194
5	2450	150.004269742215	195
5	2469	151.359374914266	196
5	2475	151.364157277154	197
5	2497	152.687913648881	198
5	2500	152.709180584858	199
5	2518	154.011666179049	200
5	2525	154.059602068551	201
5	2547	155.28791210081	202
5	2550	155.296184883302	203
5	2572	156.871851334942	204
5	2575	156.910359061153	205
5	2597	158.003036265275	206
5	2600	158.012081933937	207
5	2622	159.168084280662	208
5	2625	159.169974434844	209
5	2647	160.312760048343	210
5	2650	160.333470213655	211
5	2673	161.643723215287	212
5	2675	161.646941434063	213
5	2697	162.666934187359	214
5	2700	162.699252380091	215
5	2723	164.043564214619	216
5	2725	164.045448294087	217
5	2747	165.224202739907	218
5	2750	165.225741449191	219
5	2772	166.47260294785	220
5	2775	166.48100069879	221
5	2797	167.714404499772	222
5	2800	167.7209512933	223
5	2818	168.728338466089	224
5	2825	168.769976092464	225
5	2846	170.191032249723	226
5	2850	170.203493274131	227
5	2872	172.097865212898	228
5	2875	172.113870729139	229
5	2894	173.784363545055	230
5	2900	173.838412055185	231
5	2922	175.020185309447	232
5	2925	175.032432501146	233
5	2944	176.126166365236	234
5	2947	176.133120324034	235
5	2972	177.141250056479	236
5	2975	177.149947231761	237
5	2996	178.418175816334	238
5	3000	178.444586642245	239
5	3022	179.700542390175	240
5	3025	179.718040941571	241
5	3046	180.883511233956	242
5	3050	180.909616586626	243
5	3068	182.042562343954	244
5	3075	182.070327715286	245
5	3094	183.592493415846	246
5	3100	183.611632420668	247
5	3122	184.676812884023	248
5	3125	184.681308504584	249
5	3144	186.077255169705	250
5	3150	186.092351909542	251
5	3172	187.899354734062	252
5	3175	187.915403407152	253
5	3197	189.084687586043	254
5	3200	189.089301936374	255
5	3219	191.031695363952	256
5	3225	191.055119336239	257
5	3243	192.909704695038	258
5	3250	192.943504902942	259
5	3272	194.090542763699	260
5	3275	194.091041906105	261
5	3293	195.717084295952	262
5	3300	195.752234725691	263
5	3316	197.19091798382	264
5	3318	197.191828222304	265
5	3343	198.506274374427	266
5	3350	198.534506705985	267
5	3368	200.420992771543	268
5	3375	200.44258954683	269
5	3394	201.678627633466	270
5	3400	201.698636459135	271
5	3419	203.540775534521	272
5	3425	203.559325593982	273
5	3444	204.974918688211	274
5	3450	205.009063394315	275
5	3465	206.49867359594	276
5	3475	206.603579058415	277
5	3494	208.215276850973	278
5	3500	208.238173443195	279
5	3519	209.50444559464	280
5	3525	209.548573598776	281
5	3547	211.349139040069	282
5	3550	211.368381619838	283
5	3569	213.018000537362	284
5	3575	213.043679451852	285
5	3597	214.143862619557	286
5	3600	214.1461740823	287
5	3623	215.472539268977	288
5	3625	215.477847877085	289
5	3647	217.113506680591	290
5	3650	217.121277988923	291
5	3669	218.484527518614	292
5	3675	218.486329091577	293
5	3697	220.304001775933	294
5	3700	220.32131572036	295
5	3722	221.943630704151	296
5	3725	221.946578029921	297
5	3748	223.321734507445	298
5	3750	223.326236877634	299
5	3772	225.324991745063	300
5	3775	225.348199241016	301
5	3796	226.667385082609	302
5	3800	226.680721873594	303
5	3815	228.65115383726	304
5	3825	228.677496911889	305
5	3846	230.129182642288	306
5	3850	230.167779336845	307
5	3872	231.978794739125	308
5	3875	231.979622146754	309
5	3894	233.13511917604	310
5	3900	233.151080995497	311
5	3923	234.738666800155	312
5	3925	234.743170805105	313
5	3946	236.041466619333	314
5	3950	236.056869297529	315
5	3971	237.93483964109	316
5	3975	237.94803469135	317
5	3998	239.444592120544	318
5	4000	239.454579300709	319
6	19	0.138493272609	0
6	19	0.138493272609	1
6	19	0.138493272609	2
6	34	2.112330136425	3
6	34	2.112330136425	4
6	34	2.112330136425	5
6	61	4.007699075872	6
6	61	4.007699075872	7
6	61	4.007699075872	8
6	84	5.833460387338	9
6	84	5.833460387338	10
6	84	5.833460387338	11
6	112	6.86537999003	12
6	112	6.86537999003	13
6	112	6.86537999003	14
6	140	7.9318286577	15
6	140	7.9318286577	16
6	140	7.9318286577	17
6	162	9.355738490498	18
6	162	9.355738490498	19
6	162	9.355738490498	20
6	194	11.020238379353	21
6	194	11.020238379353	22
6	194	11.020238379353	23
6	209	12.655369409422	24
6	209	12.655369409422	25
6	209	12.655369409422	26
6	233	14.225336597731	27
6	233	14.225336597731	28
6	233	14.225336597731	29
6	265	15.955471546956	30
6	265	15.955471546956	31
6	265	15.955471546956	32
6	291	17.194149750349	33
6	291	17.194149750349	34
6	291	17.194149750349	35
6	312	19.022916750647	36
6	312	19.022916750647	37
6	312	19.022916750647	38
6	340	20.326710511716	39
6	340	20.326710511716	40
6	340	20.326710511716	41
6	362	22.148168272273	42
6	362	22.148168272273	43
6	362	22.148168272273	44
6	391	24.09527669273	45
6	391	24.09527669273	46
6	391	24.09527669273	47
6	412	25.59226771836	48
6	412	25.59226771836	49
6	412	25.59226771836	50
6	444	27.53989595078	51
6	444	27.53989595078	52
6	444	27.53989595078	53
6	462	28.662815531395	54
6	462	28.662815531395	55
6	462	28.662815531395	56
6	486	30.005427497574	57
6	486	30.005427497574	58
6	486	30.005427497574	59
6	515	31.444486973534	60
6	515	31.444486973534	61
6	515	31.444486973534	62
6	540	33.3107627274	63
6	540	33.3107627274	64
6	540	33.3107627274	65
6	565	35.012704725984	66
6	565	35.012704725984	67
6	565	35.012704725984	68
6	590	36.70068572618	69
6	590	36.70068572618	70
6	590	36.70068572618	71
6	610	38.250312289291	72
6	610	38.250312289291	73
6	610	38.250312289291	74
6	637	40.117537696558	75
6	637	40.117537696558	76
6	637	40.117537696558	77
6	659	41.223039065625	78
6	659	41.223039065625	79
6	659	41.223039065625	80
6	685	42.454285725799	81
6	685	42.454285725799	82
6	685	42.454285725799	83
6	711	44.289310673915	84
6	711	44.289310673915	85
6	711	44.289310673915	86
6	736	46.304361467599	87
6	736	46.304361467599	88
6	736	46.304361467599	89
6	766	47.817648797803	90
6	766	47.817648797803	91
6	766	47.817648797803	92
6	787	49.528095676371	93
6	787	49.528095676371	94
6	787	49.528095676371	95
6	819	50.608104528934	96
6	819	50.608104528934	97
6	819	50.608104528934	98
6	840	52.33898904559	99
6	840	52.33898904559	100
6	840	52.33898904559	101
6	859	54.048466934279	102
6	859	54.048466934279	103
6	859	54.048466934279	104
6	884	55.37405881592	105
6	884	55.37405881592	106
6	884	55.37405881592	107
6	916	57.181376337518	108
6	916	57.181376337518	109
6	916	57.181376337518	110
6	936	59.007333282818	111
6	936	59.007333282818	112
6	936	59.007333282818	113
6	961	60.258136819666	114
6	961	60.258136819666	115
6	961	60.258136819666	116
6	984	61.558638834634	117
6	984	61.558638834634	118
6	984	61.558638834634	119
6	1015	63.151250804192	120
6	1015	63.151250804192	121
6	1015	63.151250804192	122
6	1044	64.573837023152	123
6	1044	64.573837023152	124
6	1044	64.573837023152	125
6	1061	65.769402150612	126
6	1061	65.769402150612	127
6	1061	65.769402150612	128
6	1086	67.486657002522	129
6	1086	67.486657002522	130
6	1086	67.486657002522	131
6	1112	68.493769659045	132
6	1112	68.493769659045	133
6	1112	68.493769659045	134
6	1136	70.137769391094	135
6	1136	70.137769391094	136
6	1136	70.137769391094	137
6	1166	71.162628277121	138
6	1166	71.162628277121	139
6	1166	71.162628277121	140
6	1191	72.403790456238	141
6	1191	72.403790456238	142
6	1191	72.403790456238	143
6	1216	73.623858591282	144
6	1216	73.623858591282	145
6	1216	73.623858591282	146
6	1239	75.288458981096	147
6	1239	75.288458981096	148
6	1239	75.288458981096	149
6	1258	76.758080956066	150
6	1258	76.758080956066	151
6	1258	76.758080956066	152
6	1286	78.628747250547	153
6	1286	78.628747250547	154
6	1286	78.628747250547	155
6	1311	80.045214467672	156
6	1311	80.045214467672	157
6	1311	80.045214467672	158
6	1334	81.920082245252	159
6	1334	81.920082245252	160
6	1334	81.920082245252	161
6	1361	83.478342643511	162
6	1361	83.478342643511	163
6	1361	83.478342643511	164
6	1391	85.462854244357	165
6	1391	85.462854244357	166
6	1391	85.462854244357	167
6	1408	86.861089335636	168
6	1408	86.861089335636	169
6	1408	86.861089335636	170
6	1444	88.018386514112	171
6	1444	88.018386514112	172
6	1444	88.018386514112	173
6	1461	89.608171175411	174
6	1461	89.608171175411	175
6	1461	89.608171175411	176
6	1484	90.982191065154	177
6	1484	90.982191065154	178
6	1484	90.982191065154	179
6	1512	92.837835983444	180
6	1512	92.837835983444	181
6	1512	92.837835983444	182
6	1536	94.348425130729	183
6	1536	94.348425130729	184
6	1536	94.348425130729	185
6	1559	95.45913409454	186
6	1559	95.45913409454	187
6	1559	95.45913409454	188
6	1587	96.610282826569	189
6	1587	96.610282826569	190
6	1587	96.610282826569	191
6	1619	97.88444903087	192
6	1619	97.88444903087	193
6	1619	97.88444903087	194
6	1637	99.673504929382	195
6	1637	99.673504929382	196
6	1637	99.673504929382	197
6	1662	101.020136140348	198
6	1662	101.020136140348	199
6	1662	101.020136140348	200
6	1686	102.177674558039	201
6	1686	102.177674558039	202
6	1686	102.177674558039	203
6	1719	103.63806028094	204
6	1719	103.63806028094	205
6	1719	103.63806028094	206
6	1737	105.478392343569	207
6	1737	105.478392343569	208
6	1737	105.478392343569	209
6	1761	107.067059018757	210
6	1761	107.067059018757	211
6	1761	107.067059018757	212
6	1786	108.972999693148	213
6	1786	108.972999693148	214
6	1786	108.972999693148	215
6	1808	110.615635306212	216
6	1808	110.615635306212	217
6	1808	110.615635306212	218
6	1840	112.065315429363	219
6	1840	112.065315429363	220
6	1840	112.065315429363	221
6	1859	114.033742094809	222
6	1859	114.033742094809	223
6	1859	114.033742094809	224
6	1890	115.660325348215	225
6	1890	115.660325348215	226
6	1890	115.660325348215	227
6	1910	117.135709925704	228
6	1910	117.135709925704	229
6	1910	117.135709925704	230
6	1940	119.0951070235	231
6	1940	119.0951070235	232
6	1940	119.0951070235	233
6	1961	121.00786632706	234
6	1961	121.00786632706	235
6	1961	121.00786632706	236
6	1990	122.427856838707	237
6	1990	122.427856838707	238
6	1990	122.427856838707	239
6	2009	124.267183718802	240
6	2009	124.267183718802	241
6	2009	124.267183718802	242
6	2037	125.757401469157	243
6	2037	125.757401469157	244
6	2037	125.757401469157	245
6	2058	127.282278025737	246
6	2058	127.282278025737	247
6	2058	127.282278025737	248
6	2091	128.755123589559	249
6	2091	128.755123589559	250
6	2091	128.755123589559	251
6	2111	130.501185189926	252
6	2111	130.501185189926	253
6	2111	130.501185189926	254
6	2136	132.321580696676	255
6	2136	132.321580696676	256
6	2136	132.321580696676	257
6	2162	134.17722118368	258
6	2162	134.17722118368	259
6	2162	134.17722118368	260
6	2190	135.246407962092	261
6	2190	135.246407962092	262
6	2190	135.246407962092	263
6	2211	136.414458467636	264
6	2211	136.414458467636	265
6	2211	136.414458467636	266
6	2240	138.05001685165	267
6	2240	138.05001685165	268
6	2240	138.05001685165	269
6	2262	139.493817403268	270
6	2262	139.493817403268	271
6	2262	139.493817403268	272
6	2287	140.689525778045	273
6	2287	140.689525778045	274
6	2287	140.689525778045	275
6	2312	142.49480673924	276
6	2312	142.49480673924	277
6	2312	142.49480673924	278
6	2334	143.631980783219	279
6	2334	143.631980783219	280
6	2334	143.631980783219	281
6	2361	145.010451097764	282
6	2361	145.010451097764	283
6	2361	145.010451097764	284
6	2391	146.825052818357	285
6	2391	146.825052818357	286
6	2391	146.825052818357	287
6	2409	148.134760813459	288
6	2409	148.134760813459	289
6	2409	148.134760813459	290
6	2441	149.983104845475	291
6	2441	149.983104845475	292
6	2441	149.983104845475	293
6	2459	151.337125532497	294
6	2459	151.337125532497	295
6	2459	151.337125532497	296
6	2487	152.671628083789	297
6	2487	152.671628083789	298
6	2487	152.671628083789	299
6	2519	154.021462154135	300
6	2519	154.021462154135	301
6	2519	154.021462154135	302
6	2536	155.261751040632	303
6	2536	155.261751040632	304
6	2536	155.261751040632	305
6	2562	156.861696006556	306
6	2562	156.861696006556	307
6	2562	156.861696006556	308
6	2583	157.975129666447	309
6	2583	157.975129666447	310
6	2583	157.975129666447	311
6	2610	159.144970067357	312
6	2610	159.144970067357	313
6	2610	159.144970067357	314
6	2634	160.286797318324	315
6	2634	160.286797318324	316
6	2634	160.286797318324	317
6	2660	161.620226641429	318
6	2660	161.620226641429	319
6	2660	161.620226641429	320
6	2687	162.640334993735	321
6	2687	162.640334993735	322
6	2687	162.640334993735	323
6	2712	164.020007493012	324
6	2712	164.020007493012	325
6	2712	164.020007493012	326
6	2740	165.203471202894	327
6	2740	165.203471202894	328
6	2740	165.203471202894	329
6	2761	166.451912674997	330
6	2761	166.451912674997	331
6	2761	166.451912674997	332
6	2787	167.686990463484	333
6	2787	167.686990463484	334
6	2787	167.686990463484	335
6	2819	168.744578654636	336
6	2819	168.744578654636	337
6	2819	168.744578654636	338
6	2840	170.170459152858	339
6	2840	170.170459152858	340
6	2840	170.170459152858	341
6	2859	172.077706685632	342
6	2859	172.077706685632	343
6	2859	172.077706685632	344
6	2891	173.780050263393	345
6	2891	173.780050263393	346
6	2891	173.780050263393	347
6	2915	175.010179998475	348
6	2915	175.010179998475	349
6	2915	175.010179998475	350
6	2936	176.102904518068	351
6	2936	176.102904518068	352
6	2936	176.102904518068	353
6	2961	177.119005077744	354
6	2961	177.119005077744	355
6	2961	177.119005077744	356
6	2986	178.391367094922	357
6	2986	178.391367094922	358
6	2986	178.391367094922	359
6	3009	179.670279903649	360
6	3009	179.670279903649	361
6	3009	179.670279903649	362
6	3036	180.860096741029	363
6	3036	180.860096741029	364
6	3036	180.860096741029	365
6	3069	182.046870170682	366
6	3069	182.046870170682	367
6	3069	182.046870170682	368
6	3091	183.58705551106	369
6	3091	183.58705551106	370
6	3091	183.58705551106	371
6	3111	184.654811274998	372
6	3111	184.654811274998	373
6	3111	184.654811274998	374
6	3141	186.067262918647	375
6	3141	186.067262918647	376
6	3141	186.067262918647	377
6	3160	187.887372815748	378
6	3160	187.887372815748	379
6	3160	187.887372815748	380
6	3187	189.061749233055	381
6	3187	189.061749233055	382
6	3187	189.061749233055	383
6	3216	191.025716013904	384
6	3216	191.025716013904	385
6	3216	191.025716013904	386
6	3244	192.910858775869	387
6	3244	192.910858775869	388
6	3244	192.910858775869	389
6	3260	194.067446904136	390
6	3260	194.067446904136	391
6	3260	194.067446904136	392
6	3294	195.722088477955	393
6	3294	195.722088477955	394
6	3294	195.722088477955	395
6	3308	197.165915414358	396
6	3308	197.165915414358	397
6	3308	197.165915414358	398
6	3344	198.509643045569	399
6	3344	198.509643045569	400
6	3344	198.509643045569	401
6	3369	200.422187455066	402
6	3369	200.422187455066	403
6	3369	200.422187455066	404
6	3391	201.67851683315	405
6	3391	201.67851683315	406
6	3391	201.67851683315	407
6	3416	203.536850361743	408
6	3416	203.536850361743	409
6	3416	203.536850361743	410
6	3441	204.968641461622	411
6	3441	204.968641461622	412
6	3441	204.968641461622	413
6	3469	206.521995468203	414
6	3469	206.521995468203	415
6	3469	206.521995468203	416
6	3484	208.192910479699	417
6	3484	208.192910479699	418
6	3484	208.192910479699	419
6	3516	209.49747562971	420
6	3516	209.49747562971	421
6	3516	209.49747562971	422
6	3537	211.335689766993	423
6	3537	211.335689766993	424
6	3537	211.335689766993	425
6	3566	213.013485559396	426
6	3566	213.013485559396	427
6	3566	213.013485559396	428
6	3587	214.100758148688	429
6	3587	214.100758148688	430
6	3587	214.100758148688	431
6	3610	215.454282692311	432
6	3610	215.454282692311	433
6	3610	215.454282692311	434
6	3636	217.090613804584	435
6	3636	217.090613804584	436
6	3636	217.090613804584	437
6	3661	218.458001400191	438
6	3661	218.458001400191	439
6	3661	218.458001400191	440
6	3687	220.280541475065	441
6	3687	220.280541475065	442
6	3687	220.280541475065	443
6	3711	221.922020980375	444
6	3711	221.922020980375	445
6	3711	221.922020980375	446
6	3734	223.29167561419	447
6	3734	223.29167561419	448
6	3734	223.29167561419	449
6	3765	225.312445759114	450
6	3765	225.312445759114	451
6	3765	225.312445759114	452
6	3783	226.646136512252	453
6	3783	226.646136512252	454
6	3783	226.646136512252	455
6	3819	228.656957723893	456
6	3819	228.656957723893	457
6	3819	228.656957723893	458
6	3837	230.097008700791	459
6	3837	230.097008700791	460
6	3837	230.097008700791	461
6	3862	231.954191391456	462
6	3862	231.954191391456	463
6	3862	231.954191391456	464
6	3891	233.128175493429	465
6	3891	233.128175493429	466
6	3891	233.128175493429	467
6	3910	234.71291380056	468
6	3910	234.71291380056	469
6	3910	234.71291380056	470
6	3934	236.020021604007	471
6	3934	236.020021604007	472
6	3934	236.020021604007	473
6	3961	237.895513895205	474
6	3961	237.895513895205	475
6	3961	237.895513895205	476
6	3983	239.418658954816	477
6	3983	239.418658954816	478
6	3983	239.418658954816	479
7	23	0.160052069715	0
7	23	0.160052069715	1
7	44	2.138461813338	2
7	44	2.138461813338	3
7	70	4.023005752333	4
7	70	4.023005752333	5
7	98	5.867384993503	6
7	98	5.867384993503	7
7	119	6.878006833666	8
7	119	6.878006833666	9
7	145	7.943328475524	10
7	145	7.943328475524	11
7	170	9.37014731591	12
7	170	9.37014731591	13
7	198	11.045054947083	14
7	198	11.045054947083	15
7	220	12.683189040891	16
7	220	12.683189040891	17
7	240	14.236663583267	18
7	240	14.236663583267	19
7	269	15.968893070359	20
7	269	15.968893070359	21
7	298	17.21477227733	22
7	298	17.21477227733	23
7	319	19.046424307029	24
7	319	19.046424307029	25
7	348	20.345379453131	26
7	348	20.345379453131	27
7	370	22.159169877438	28
7	370	22.159169877438	29
7	398	24.119396318225	30
7	398	24.119396318225	31
7	419	25.606862341865	32
7	419	25.606862341865	33
7	448	27.557539747864	34
7	448	27.557539747864	35
7	473	28.702781519314	36
7	473	28.702781519314	37
7	495	30.024895800631	38
7	495	30.024895800631	39
7	523	31.466444027464	40
7	523	31.466444027464	41
7	548	33.330489205356	42
7	548	33.330489205356	43
7	573	35.026254350437	44
7	573	35.026254350437	45
7	595	36.711515478771	46
7	595	36.711515478771	47
7	619	38.261812150171	48
7	619	38.261812150171	49
7	645	40.130199070086	50
7	645	40.130199070086	51
7	666	41.23353411995	52
7	666	41.23353411995	53
7	698	42.473707987889	54
7	698	42.473707987889	55
7	720	44.30886267711	56
7	720	44.30886267711	57
7	742	46.31875745608	58
7	742	46.31875745608	59
7	773	47.841518640256	60
7	773	47.841518640256	61
7	798	49.551952954052	62
7	798	49.551952954052	63
7	823	50.628149923985	64
7	823	50.628149923985	65
7	845	52.34917407323	66
7	845	52.34917407323	67
7	873	54.069581843289	68
7	873	54.069581843289	69
7	895	55.407640008943	70
7	895	55.407640008943	71
7	923	57.208122001312	72
7	923	57.208122001312	73
7	945	59.041498980366	74
7	945	59.041498980366	75
7	970	60.27537735177	76
7	970	60.27537735177	77
7	994	61.595500906686	78
7	994	61.595500906686	79
7	1023	63.182392936935	80
7	1023	63.182392936935	81
7	1048	64.598281511169	82
7	1048	64.598281511169	83
7	1070	65.784777134537	84
7	1070	65.784777134537	85
7	1091	67.496766487034	86
7	1091	67.496766487034	87
7	1119	68.508824708915	88
7	1119	68.508824708915	89
7	1141	70.154394182855	90
7	1141	70.154394182855	91
7	1173	71.189115180678	92
7	1173	71.189115180678	93
7	1198	72.415833127376	94
7	1198	72.415833127376	95
7	1223	73.659557515328	96
7	1223	73.659557515328	97
7	1248	75.304412065213	98
7	1248	75.304412065213	99
7	1267	76.77254590008	100
7	1267	76.77254590008	101
7	1290	78.640164742833	102
7	1290	78.640164742833	103
7	1323	80.080465159752	104
7	1323	80.080465159752	105
7	1348	81.949760316419	106
7	1348	81.949760316419	107
7	1366	83.488675104354	108
7	1366	83.488675104354	109
7	1398	85.474991469457	110
7	1398	85.474991469457	111
7	1419	86.880099514722	112
7	1419	86.880099514722	113
7	1448	88.071893069947	114
7	1448	88.071893069947	115
7	1466	89.631468945107	116
7	1466	89.631468945107	117
7	1496	91.011939116153	118
7	1496	91.011939116153	119
7	1520	92.855522972777	120
7	1520	92.855522972777	121
7	1545	94.374118702529	122
7	1545	94.374118702529	123
7	1568	95.474497297895	124
7	1568	95.474497297895	125
7	1595	96.628138113516	126
7	1595	96.628138113516	127
7	1623	97.899839978102	128
7	1623	97.899839978102	129
7	1644	99.695293183539	130
7	1644	99.695293183539	131
7	1670	101.031601960597	132
7	1670	101.031601960597	133
7	1694	102.193236958288	134
7	1694	102.193236958288	135
7	1723	103.654383922361	136
7	1723	103.654383922361	137
7	1748	105.493887187989	138
7	1748	105.493887187989	139
7	1773	107.108624530207	140
7	1773	107.108624530207	141
7	1790	108.987531206561	142
7	1790	108.987531206561	143
7	1823	110.65472702582	144
7	1823	110.65472702582	145
7	1848	112.076849520193	146
7	1848	112.076849520193	147
7	1873	114.066443235176	148
7	1873	114.066443235176	149
7	1895	115.672770188224	150
7	1895	115.672770188224	151
7	1920	117.149153835992	152
7	1920	117.149153835992	153
7	1948	119.111024399027	154
7	1948	119.111024399027	155
7	1969	121.018920359075	156
7	1969	121.018920359075	157
7	1998	122.448907064653	158
7	1998	122.448907064653	159
7	2019	124.28129310974	160
7	2019	124.28129310974	161
7	2044	125.773064070201	162
7	2044	125.773064070201	163
7	2066	127.299514517822	164
7	2066	127.299514517822	165
7	2098	128.770374960347	166
7	2098	128.770374960347	167
7	2116	130.511306713468	168
7	2116	130.511306713468	169
7	2141	132.332246692487	170
7	2141	132.332246692487	171
7	2173	134.197675616237	172
7	2173	134.197675616237	173
7	2198	135.270283600989	174
7	2198	135.270283600989	175
7	2219	136.424986201546	176
7	2219	136.424986201546	177
7	2248	138.119871634513	178
7	2248	138.119871634513	179
7	2270	139.505255882614	180
7	2270	139.505255882614	181
7	2298	140.711470905986	182
7	2298	140.711470905986	183
7	2320	142.511277049101	184
7	2320	142.511277049101	185
7	2344	143.644660592612	186
7	2344	143.644660592612	187
7	2366	145.025414033441	188
7	2366	145.025414033441	189
7	2398	146.856959295822	190
7	2398	146.856959295822	191
7	2419	148.154216466751	192
7	2419	148.154216466751	193
7	2448	149.994269742215	194
7	2448	149.994269742215	195
7	2465	151.349374914266	196
7	2465	151.349374914266	197
7	2498	152.699180584858	198
7	2498	152.699180584858	199
7	2523	154.049602068551	200
7	2523	154.049602068551	201
7	2541	155.27791210081	202
7	2541	155.27791210081	203
7	2573	156.900359061153	204
7	2573	156.900359061153	205
7	2594	157.993036265275	206
7	2594	157.993036265275	207
7	2619	159.158084280662	208
7	2619	159.158084280662	209
7	2648	160.323470213655	210
7	2648	160.323470213655	211
7	2670	161.636941434063	212
7	2670	161.636941434063	213
7	2698	162.689252380091	214
7	2698	162.689252380091	215
7	2720	164.035448294087	216
7	2720	164.035448294087	217
7	2744	165.214202739907	218
7	2744	165.214202739907	219
7	2766	166.46260294785	220
7	2766	166.46260294785	221
7	2794	167.704404499772	222
7	2794	167.704404499772	223
7	2823	168.759976092464	224
7	2823	168.759976092464	225
7	2844	170.181032249723	226
7	2844	170.181032249723	227
7	2873	172.103870729139	228
7	2873	172.103870729139	229
7	2898	173.828412055185	230
7	2898	173.828412055185	231
7	2923	175.022432501146	232
7	2923	175.022432501146	233
7	2940	176.116166365236	234
7	2940	176.116166365236	235
7	2969	177.131250056479	236
7	2969	177.131250056479	237
7	2994	178.408175816334	238
7	2994	178.408175816334	239
7	3023	179.708040941571	240
7	3023	179.708040941571	241
7	3041	180.873511233956	242
7	3041	180.873511233956	243
7	3073	182.060327715286	244
7	3073	182.060327715286	245
7	3098	183.601632420668	246
7	3098	183.601632420668	247
7	3116	184.666812884023	248
7	3116	184.666812884023	249
7	3148	186.082351909542	250
7	3148	186.082351909542	251
7	3173	187.905403407152	252
7	3173	187.905403407152	253
7	3194	189.074687586043	254
7	3194	189.074687586043	255
7	3223	191.045119336239	256
7	3223	191.045119336239	257
7	3248	192.933504902942	258
7	3248	192.933504902942	259
7	3269	194.080542763699	260
7	3269	194.080542763699	261
7	3298	195.742234725691	262
7	3298	195.742234725691	263
7	3313	197.181828222304	264
7	3313	197.181828222304	265
7	3348	198.524506705985	266
7	3348	198.524506705985	267
7	3373	200.43258954683	268
7	3373	200.43258954683	269
7	3398	201.688636459135	270
7	3398	201.688636459135	271
7	3423	203.549325593982	272
7	3423	203.549325593982	273
7	3448	204.999063394315	274
7	3448	204.999063394315	275
7	3473	206.593579058415	276
7	3473	206.593579058415	277
7	3496	208.228173443195	278
7	3496	208.228173443195	279
7	3523	209.538573598776	280
7	3523	209.538573598776	281
7	3548	211.358381619838	282
7	3548	211.358381619838	283
7	3573	213.033679451852	284
7	3573	213.033679451852	285
7	3594	214.133862619557	286
7	3594	214.133862619557	287
7	3620	215.467847877085	288
7	3620	215.467847877085	289
7	3641	217.103506680591	290
7	3641	217.103506680591	291
7	3665	218.474527518614	292
7	3665	218.474527518614	293
7	3698	220.31131572036	294
7	3698	220.31131572036	295
7	3716	221.933630704151	296
7	3716	221.933630704151	297
7	3742	223.316236877634	298
7	3742	223.316236877634	299
7	3773	225.338199241016	300
7	3773	225.338199241016	301
7	3789	226.657385082609	302
7	3789	226.657385082609	303
7	3823	228.667496911889	304
7	3823	228.667496911889	305
7	3844	230.119182642288	306
7	3844	230.119182642288	307
7	3869	231.968794739125	308
7	3869	231.968794739125	309
7	3898	233.141080995497	310
7	3898	233.141080995497	311
7	3920	234.733170805105	312
7	3920	234.733170805105	313
7	3942	236.031466619333	314
7	3942	236.031466619333	315
7	3969	237.92483964109	316
7	3969	237.92483964109	317
7	3995	239.444579300709	318
7	3995	239.444579300709	319

