version 2
run General-3-20230921-22:33:09-6992
attr configname General
attr datetime 20230921-22:33:09
attr experiment General
attr inifile omnetpp.ini
attr iterationvars ""
attr iterationvarsf ""
attr measurement ""
attr network Network3
attr processid 6992
attr repetition 3
attr replication #3
attr resultdir results
attr runnumber 3
attr seedset 3
param Network3.node[*].transmissionTime "uniform(1s, 2s)"
param Network3.node[*].delayTime "uniform(0.01s, 0.2s)"
param Network3.node[*].processingTime exponential(0.01s)
param Network3.node[0].lossProbability 0
param Network3.node[1].lossProbability 0.0
param Network3.node[2].lossProbability 0.0
param Network3.node[3].lossProbability "0.0 / 2"
param Network3.node[4].lossProbability "0.0 / 2"
param Network3.node[6].lossProbability "0.0 * 2"
param Network3.node[7].lossProbability "0.0 * 2"
param Network3.node[5].lossProbability "0.0 * 3"

vector 0 Network3.node[0] txVector ETV
vector 1 Network3.node[2] txVector ETV
vector 2 Network3.node[1] txVector ETV
vector 3 Network3.node[3] txVector ETV
vector 4 Network3.node[4] txVector ETV
vector 5 Network3.node[7] txVector ETV
vector 6 Network3.node[6] txVector ETV
vector 7 Network3.node[5] rxVector ETV
0	1	0.114651601831	0
0	1	0.114651601831	1
0	26	1.185376482154	2
0	26	1.185376482154	3
0	51	2.463863766123	4
0	51	2.463863766123	5
0	76	4.281434493442	6
0	76	4.281434493442	7
0	101	5.642999256565	8
0	101	5.642999256565	9
0	126	7.403577746893	10
0	126	7.403577746893	11
0	151	8.976371612469	12
0	151	8.976371612469	13
0	176	10.902104396908	14
0	176	10.902104396908	15
0	201	12.828830081573	16
0	201	12.828830081573	17
0	226	14.062522090808	18
0	226	14.062522090808	19
0	251	15.239735475578	20
0	251	15.239735475578	21
0	276	17.235178650426	22
0	276	17.235178650426	23
0	301	18.575867134216	24
0	301	18.575867134216	25
0	326	20.225440392806	26
0	326	20.225440392806	27
0	351	21.707937431359	28
0	351	21.707937431359	29
0	376	23.490321410424	30
0	376	23.490321410424	31
0	401	25.233058683178	32
0	401	25.233058683178	33
0	426	26.516748132952	34
0	426	26.516748132952	35
0	451	28.315466404729	36
0	451	28.315466404729	37
0	476	30.045625943061	38
0	476	30.045625943061	39
0	501	31.190915901516	40
0	501	31.190915901516	41
0	526	32.315073485323	42
0	526	32.315073485323	43
0	551	33.775441987277	44
0	551	33.775441987277	45
0	576	35.491357686766	46
0	576	35.491357686766	47
0	601	36.99744295103	48
0	601	36.99744295103	49
0	626	38.594347563176	50
0	626	38.594347563176	51
0	651	39.696481789299	52
0	651	39.696481789299	53
0	676	41.593642635108	54
0	676	41.593642635108	55
0	701	43.167063915473	56
0	701	43.167063915473	57
0	726	45.022612117068	58
0	726	45.022612117068	59
0	751	46.943081536633	60
0	751	46.943081536633	61
0	776	48.369646798889	62
0	776	48.369646798889	63
0	801	50.085528773093	64
0	801	50.085528773093	65
0	826	51.751712559094	66
0	826	51.751712559094	67
0	851	53.374025199167	68
0	851	53.374025199167	69
0	876	55.262745523197	70
0	876	55.262745523197	71
0	901	56.654247281677	72
0	901	56.654247281677	73
0	926	57.817835316132	74
0	926	57.817835316132	75
0	951	59.602085782052	76
0	951	59.602085782052	77
0	976	61.410797824687	78
0	976	61.410797824687	79
0	1001	62.425898594851	80
0	1001	62.425898594851	81
0	1026	64.262927247048	82
0	1026	64.262927247048	83
0	1051	65.420372804696	84
0	1051	65.420372804696	85
0	1076	67.154180476977	86
0	1076	67.154180476977	87
0	1101	68.902563517051	88
0	1101	68.902563517051	89
0	1126	70.506712998565	90
0	1126	70.506712998565	91
0	1151	71.599960580537	92
0	1151	71.599960580537	93
0	1176	73.380756898852	94
0	1176	73.380756898852	95
0	1201	75.067556844395	96
0	1201	75.067556844395	97
0	1226	76.923717993614	98
0	1226	76.923717993614	99
0	1251	78.183023090544	100
0	1251	78.183023090544	101
0	1276	79.720349955675	102
0	1276	79.720349955675	103
0	1301	81.571714035072	104
0	1301	81.571714035072	105
0	1326	83.207179821632	106
0	1326	83.207179821632	107
0	1351	84.21169819457	108
0	1351	84.21169819457	109
0	1376	85.994675974432	110
0	1376	85.994675974432	111
0	1401	87.457630228554	112
0	1401	87.457630228554	113
0	1426	89.318524335581	114
0	1426	89.318524335581	115
0	1451	91.292915739422	116
0	1451	91.292915739422	117
0	1476	92.918385727867	118
0	1476	92.918385727867	119
0	1501	94.121599605377	120
0	1501	94.121599605377	121
0	1526	95.269234890654	122
0	1526	95.269234890654	123
0	1551	96.546651149472	124
0	1551	96.546651149472	125
0	1576	97.660678181868	126
0	1576	97.660678181868	127
0	1601	99.475154045574	128
0	1601	99.475154045574	129
0	1626	101.212010659581	130
0	1626	101.212010659581	131
0	1651	102.460816575518	132
0	1651	102.460816575518	133
0	1676	103.720567732887	134
0	1676	103.720567732887	135
0	1701	105.269928848674	136
0	1701	105.269928848674	137
0	1726	106.679200035823	138
0	1726	106.679200035823	139
0	1751	108.660982010258	140
0	1751	108.660982010258	141
0	1776	110.116499650828	142
0	1776	110.116499650828	143
0	1801	111.996833006922	144
0	1801	111.996833006922	145
0	1826	113.03799569381	146
0	1826	113.03799569381	147
0	1851	114.396834244091	148
0	1851	114.396834244091	149
0	1876	116.017645377504	150
0	1876	116.017645377504	151
0	1901	117.992370061182	152
0	1901	117.992370061182	153
0	1926	119.81419221901	154
0	1926	119.81419221901	155
0	1951	121.722791931663	156
0	1951	121.722791931663	157
0	1976	122.949972390268	158
0	1976	122.949972390268	159
0	2001	124.902249140037	160
0	2001	124.902249140037	161
0	2026	126.613431002084	162
0	2026	126.613431002084	163
0	2051	128.035776489718	164
0	2051	128.035776489718	165
0	2076	129.155063133292	166
0	2076	129.155063133292	167
0	2101	130.748175670929	168
0	2101	130.748175670929	169
0	2126	132.048359784135	170
0	2126	132.048359784135	171
0	2151	133.279555554805	172
0	2151	133.279555554805	173
0	2176	134.92005704071	174
0	2176	134.92005704071	175
0	2201	136.202108386509	176
0	2201	136.202108386509	177
0	2226	137.401822177997	178
0	2226	137.401822177997	179
0	2251	138.541535374081	180
0	2251	138.541535374081	181
0	2276	140.255003411627	182
0	2276	140.255003411627	183
0	2301	141.782654109017	184
0	2301	141.782654109017	185
0	2326	143.531776173345	186
0	2326	143.531776173345	187
0	2351	145.118711408765	188
0	2351	145.118711408765	189
0	2376	146.997935707753	190
0	2376	146.997935707753	191
0	2401	148.914616201844	192
0	2401	148.914616201844	193
0	2426	150.319301523574	194
0	2426	150.319301523574	195
0	2451	151.71414536408	196
0	2451	151.71414536408	197
0	2476	152.894898044717	198
0	2476	152.894898044717	199
0	2501	154.010642623835	200
0	2501	154.010642623835	201
0	2526	155.602587303686	202
0	2526	155.602587303686	203
0	2551	156.637055758228	204
0	2551	156.637055758228	205
0	2576	158.333338779006	206
0	2576	158.333338779006	207
0	2601	159.980480694752	208
0	2601	159.980480694752	209
0	2626	161.791918495511	210
0	2626	161.791918495511	211
0	2651	163.067575719747	212
0	2651	163.067575719747	213
0	2676	164.745335227651	214
0	2676	164.745335227651	215
0	2701	166.458648207904	216
0	2701	166.458648207904	217
0	2726	168.128992308471	218
0	2726	168.128992308471	219
0	2751	169.697942845365	220
0	2751	169.697942845365	221
0	2776	171.538696331279	222
0	2776	171.538696331279	223
0	2801	172.963386109406	224
0	2801	172.963386109406	225
0	2826	174.239060668349	226
0	2826	174.239060668349	227
0	2851	175.329362632781	228
0	2851	175.329362632781	229
0	2876	176.834812436094	230
0	2876	176.834812436094	231
0	2901	178.374013636801	232
0	2901	178.374013636801	233
0	2926	179.686747249523	234
0	2926	179.686747249523	235
0	2951	181.063111963523	236
0	2951	181.063111963523	237
0	2976	182.893596156574	238
0	2976	182.893596156574	239
0	3001	184.648846447309	240
0	3001	184.648846447309	241
0	3026	185.788522419827	242
0	3026	185.788522419827	243
0	3051	187.518105196375	244
0	3051	187.518105196375	245
0	3076	188.581103100981	246
0	3076	188.581103100981	247
0	3101	190.016279280958	248
0	3101	190.016279280958	249
0	3126	191.087366167064	250
0	3126	191.087366167064	251
0	3151	192.108837557565	252
0	3151	192.108837557565	253
0	3176	194.103319784933	254
0	3176	194.103319784933	255
0	3201	195.54355057313	256
0	3201	195.54355057313	257
0	3226	196.62925210812	258
0	3226	196.62925210812	259
0	3251	198.297340997102	260
0	3251	198.297340997102	261
0	3276	199.306525322914	262
0	3276	199.306525322914	263
0	3301	200.860035563193	264
0	3301	200.860035563193	265
0	3326	202.088389229567	266
0	3326	202.088389229567	267
0	3351	203.561757703616	268
0	3351	203.561757703616	269
0	3376	205.151495880519	270
0	3376	205.151495880519	271
0	3401	206.717380123285	272
0	3401	206.717380123285	273
0	3426	207.875544478025	274
0	3426	207.875544478025	275
0	3451	209.662110580204	276
0	3451	209.662110580204	277
0	3476	211.375221688606	278
0	3476	211.375221688606	279
0	3501	213.150718543053	280
0	3501	213.150718543053	281
0	3526	214.494757577151	282
0	3526	214.494757577151	283
0	3551	216.313956328973	284
0	3551	216.313956328973	285
0	3576	217.333765335454	286
0	3576	217.333765335454	287
0	3601	218.541994251849	288
0	3601	218.541994251849	289
0	3626	220.102118800001	290
0	3626	220.102118800001	291
0	3651	221.875411534987	292
0	3651	221.875411534987	293
0	3676	223.624740562707	294
0	3676	223.624740562707	295
0	3701	225.423500047836	296
0	3701	225.423500047836	297
0	3726	227.227194747028	298
0	3726	227.227194747028	299
0	3751	228.925403907501	300
0	3751	228.925403907501	301
0	3776	230.395563760611	302
0	3776	230.395563760611	303
0	3801	232.180227668562	304
0	3801	232.180227668562	305
0	3826	234.080817073423	306
0	3826	234.080817073423	307
0	3851	235.984495098076	308
0	3851	235.984495098076	309
0	3876	237.179990178279	310
0	3876	237.179990178279	311
0	3901	238.555502453192	312
0	3901	238.555502453192	313
1	4	0.125945044446	0
1	4	0.125945044446	1
1	29	1.204313529693	2
1	29	1.204313529693	3
1	58	2.496219117126	4
1	58	2.496219117126	5
1	80	4.296652009684	6
1	80	4.296652009684	7
1	110	5.671390356335	8
1	110	5.671390356335	9
1	130	7.419468232435	10
1	130	7.419468232435	11
1	154	8.988308213814	12
1	154	8.988308213814	13
1	179	10.925062335954	14
1	179	10.925062335954	15
1	213	12.870611315971	16
1	213	12.870611315971	17
1	237	14.094814804452	18
1	237	14.094814804452	19
1	255	15.257656993936	20
1	255	15.257656993936	21
1	283	17.265138457471	22
1	283	17.265138457471	23
1	308	18.604277919568	24
1	308	18.604277919568	25
1	334	20.253379283214	26
1	334	20.253379283214	27
1	354	21.722732782396	28
1	354	21.722732782396	29
1	380	23.50759433323	30
1	380	23.50759433323	31
1	405	25.248510550743	32
1	405	25.248510550743	33
1	430	26.52927543983	34
1	430	26.52927543983	35
1	454	28.327459946596	36
1	454	28.327459946596	37
1	479	30.063997655652	38
1	479	30.063997655652	39
1	508	31.219523587905	40
1	508	31.219523587905	41
1	529	32.326277596149	42
1	529	32.326277596149	43
1	554	33.786369478315	44
1	554	33.786369478315	45
1	579	35.502578597398	46
1	579	35.502578597398	47
1	604	37.017037953631	48
1	604	37.017037953631	49
1	629	38.604368841406	50
1	629	38.604368841406	51
1	654	39.713236066538	52
1	654	39.713236066538	53
1	679	41.611646231406	54
1	679	41.611646231406	55
1	704	43.177965828304	56
1	704	43.177965828304	57
1	730	45.042270269567	58
1	730	45.042270269567	59
1	755	46.966552006587	60
1	755	46.966552006587	61
1	784	48.404127048505	62
1	784	48.404127048505	63
1	805	50.098481955463	64
1	805	50.098481955463	65
1	829	51.769198360086	66
1	829	51.769198360086	67
1	854	53.385017637211	68
1	854	53.385017637211	69
1	879	55.282517556511	70
1	879	55.282517556511	71
1	905	56.674346635936	72
1	905	56.674346635936	73
1	929	57.828740233748	74
1	929	57.828740233748	75
1	960	59.636110006529	76
1	960	59.636110006529	77
1	983	61.439373452003	78
1	983	61.439373452003	79
1	1009	62.457926437668	80
1	1009	62.457926437668	81
1	1030	64.285136896931	82
1	1030	64.285136896931	83
1	1055	65.444308246112	84
1	1055	65.444308246112	85
1	1079	67.178545344918	86
1	1079	67.178545344918	87
1	1105	68.919271731781	88
1	1105	68.919271731781	89
1	1130	70.527981914079	90
1	1130	70.527981914079	91
1	1154	71.616133088741	92
1	1154	71.616133088741	93
1	1180	73.397764067713	94
1	1180	73.397764067713	95
1	1205	75.097918034244	96
1	1205	75.097918034244	97
1	1229	76.947207166722	98
1	1229	76.947207166722	99
1	1254	78.194682580919	100
1	1254	78.194682580919	101
1	1280	79.744197272454	102
1	1280	79.744197272454	103
1	1309	81.614933680671	104
1	1309	81.614933680671	105
1	1329	83.224286036814	106
1	1329	83.224286036814	107
1	1355	84.229417474191	108
1	1355	84.229417474191	109
1	1379	86.008663082294	110
1	1379	86.008663082294	111
1	1404	87.471521712329	112
1	1404	87.471521712329	113
1	1433	89.354607730119	114
1	1433	89.354607730119	115
1	1458	91.318317157694	116
1	1458	91.318317157694	117
1	1479	92.933728447678	118
1	1479	92.933728447678	119
1	1516	94.173666755194	120
1	1516	94.173666755194	121
1	1530	95.298817261525	122
1	1530	95.298817261525	123
1	1555	96.558958879881	124
1	1555	96.558958879881	125
1	1580	97.674764388437	126
1	1580	97.674764388437	127
1	1604	99.491793254367	128
1	1604	99.491793254367	129
1	1639	101.287349169544	130
1	1639	101.287349169544	131
1	1654	102.486184661868	132
1	1654	102.486184661868	133
1	1684	103.749990895497	134
1	1684	103.749990895497	135
1	1705	105.284011670282	136
1	1705	105.284011670282	137
1	1734	106.714795825114	138
1	1734	106.714795825114	139
1	1755	108.678976610575	140
1	1755	108.678976610575	141
1	1780	110.148035739572	142
1	1780	110.148035739572	143
1	1804	112.009213746102	144
1	1804	112.009213746102	145
1	1829	113.049888597538	146
1	1829	113.049888597538	147
1	1855	114.4194511827	148
1	1855	114.4194511827	149
1	1880	116.038343931675	150
1	1880	116.038343931675	151
1	1904	118.011532277521	152
1	1904	118.011532277521	153
1	1930	119.846122077907	154
1	1930	119.846122077907	155
1	1954	121.737241793228	156
1	1954	121.737241793228	157
1	1980	122.983461367828	158
1	1980	122.983461367828	159
1	2005	124.922925832667	160
1	2005	124.922925832667	161
1	2029	126.624291599699	162
1	2029	126.624291599699	163
1	2055	128.053074081365	164
1	2055	128.053074081365	165
1	2079	129.175756062536	166
1	2079	129.175756062536	167
1	2105	130.76897518174	168
1	2105	130.76897518174	169
1	2129	132.06193765683	170
1	2129	132.06193765683	171
1	2155	133.30536010722	172
1	2155	133.30536010722	173
1	2179	134.931111639201	174
1	2179	134.931111639201	175
1	2204	136.219729971395	176
1	2204	136.219729971395	177
1	2230	137.414156723575	178
1	2230	137.414156723575	179
1	2254	138.553073209721	180
1	2254	138.553073209721	181
1	2289	140.299848953982	182
1	2289	140.299848953982	183
1	2304	141.796724996217	184
1	2304	141.796724996217	185
1	2329	143.552651218835	186
1	2329	143.552651218835	187
1	2354	145.143917143072	188
1	2354	145.143917143072	189
1	2379	147.010498238052	190
1	2379	147.010498238052	191
1	2404	148.930539189451	192
1	2404	148.930539189451	193
1	2430	150.337031270801	194
1	2430	150.337031270801	195
1	2454	151.726475636853	196
1	2454	151.726475636853	197
1	2479	152.912245527833	198
1	2479	152.912245527833	199
1	2508	154.038951069736	200
1	2508	154.038951069736	201
1	2529	155.617992628948	202
1	2529	155.617992628948	203
1	2554	156.648323972851	204
1	2554	156.648323972851	205
1	2579	158.343597956709	206
1	2579	158.343597956709	207
1	2605	160.003042752274	208
1	2605	160.003042752274	209
1	2629	161.805329033219	210
1	2629	161.805329033219	211
1	2654	163.078084425302	212
1	2654	163.078084425302	213
1	2679	164.757438186997	214
1	2679	164.757438186997	215
1	2704	166.478754565095	216
1	2704	166.478754565095	217
1	2734	168.174465693325	218
1	2734	168.174465693325	219
1	2754	169.713067801264	220
1	2754	169.713067801264	221
1	2779	171.555128340226	222
1	2779	171.555128340226	223
1	2805	173.000424834344	224
1	2805	173.000424834344	225
1	2838	174.271132852662	226
1	2838	174.271132852662	227
1	2854	175.34016562409	228
1	2854	175.34016562409	229
1	2879	176.846578192054	230
1	2879	176.846578192054	231
1	2904	178.385023960807	232
1	2904	178.385023960807	233
1	2933	179.708986568657	234
1	2933	179.708986568657	235
1	2955	181.082599103321	236
1	2955	181.082599103321	237
1	2979	182.904547357061	238
1	2979	182.904547357061	239
1	3005	184.668008624139	240
1	3005	184.668008624139	241
1	3029	185.798679888356	242
1	3029	185.798679888356	243
1	3054	187.537887211598	244
1	3054	187.537887211598	245
1	3080	188.598476133136	246
1	3080	188.598476133136	247
1	3104	190.036289147266	248
1	3104	190.036289147266	249
1	3148	191.146522367814	250
1	3148	191.146522367814	251
1	3159	192.145311605132	252
1	3159	192.145311605132	253
1	3180	194.120314158386	254
1	3180	194.120314158386	255
1	3204	195.556575471748	256
1	3204	195.556575471748	257
1	3229	196.641144864377	258
1	3229	196.641144864377	259
1	3255	198.310140394263	260
1	3255	198.310140394263	261
1	3295	199.358220565334	262
1	3295	199.358220565334	263
1	3305	200.877666127742	264
1	3305	200.877666127742	265
1	3337	202.122539178086	266
1	3337	202.122539178086	267
1	3354	203.573909542543	268
1	3354	203.573909542543	269
1	3379	205.163611361561	270
1	3379	205.163611361561	271
1	3408	206.742573571171	272
1	3408	206.742573571171	273
1	3434	207.906652390075	274
1	3434	207.906652390075	275
1	3455	209.681612134813	276
1	3455	209.681612134813	277
1	3480	211.40131995711	278
1	3480	211.40131995711	279
1	3504	213.160919372486	280
1	3504	213.160919372486	281
1	3529	214.50998954385	282
1	3529	214.50998954385	283
1	3554	216.329573902122	284
1	3554	216.329573902122	285
1	3585	217.355831174012	286
1	3585	217.355831174012	287
1	3604	218.557172303943	288
1	3604	218.557172303943	289
1	3629	220.120997420889	290
1	3629	220.120997420889	291
1	3654	221.885934579183	292
1	3654	221.885934579183	293
1	3685	223.654955174885	294
1	3685	223.654955174885	295
1	3704	225.435283697722	296
1	3704	225.435283697722	297
1	3729	227.242411795497	298
1	3729	227.242411795497	299
1	3755	228.93828368073	300
1	3755	228.93828368073	301
1	3779	230.412916510358	302
1	3779	230.412916510358	303
1	3808	232.21778989136	304
1	3808	232.21778989136	305
1	3830	234.107836458029	306
1	3830	234.107836458029	307
1	3855	235.995540721028	308
1	3855	235.995540721028	309
1	3880	237.201018053989	310
1	3880	237.201018053989	311
1	3908	238.57742793561	312
1	3908	238.57742793561	313
2	7	0.14297423212	0
2	7	0.14297423212	1
2	7	0.14297423212	2
2	30	1.206654470272	3
2	30	1.206654470272	4
2	30	1.206654470272	5
2	54	2.476842238982	6
2	54	2.476842238982	7
2	54	2.476842238982	8
2	79	4.293984119224	9
2	79	4.293984119224	10
2	79	4.293984119224	11
2	104	5.653658195509	12
2	104	5.653658195509	13
2	104	5.653658195509	14
2	129	7.417520137869	15
2	129	7.417520137869	16
2	129	7.417520137869	17
2	155	8.98961954221	18
2	155	8.98961954221	19
2	155	8.98961954221	20
2	180	10.930379904552	21
2	180	10.930379904552	22
2	180	10.930379904552	23
2	204	12.841097552538	24
2	204	12.841097552538	25
2	204	12.841097552538	26
2	229	14.073286837981	27
2	229	14.073286837981	28
2	229	14.073286837981	29
2	254	15.254131835333	30
2	254	15.254131835333	31
2	254	15.254131835333	32
2	279	17.245847243274	33
2	279	17.245847243274	34
2	279	17.245847243274	35
2	304	18.589577215026	36
2	304	18.589577215026	37
2	304	18.589577215026	38
2	329	20.238823829379	39
2	329	20.238823829379	40
2	329	20.238823829379	41
2	357	21.733724688897	42
2	357	21.733724688897	43
2	357	21.733724688897	44
2	379	23.503955333949	45
2	379	23.503955333949	46
2	379	23.503955333949	47
2	404	25.245452610951	48
2	404	25.245452610951	49
2	404	25.245452610951	50
2	429	26.528409733188	51
2	429	26.528409733188	52
2	429	26.528409733188	53
2	455	28.335016446326	54
2	455	28.335016446326	55
2	455	28.335016446326	56
2	480	30.06773323636	57
2	480	30.06773323636	58
2	480	30.06773323636	59
2	504	31.208542909358	60
2	504	31.208542909358	61
2	504	31.208542909358	62
2	532	32.340214909123	63
2	532	32.340214909123	64
2	532	32.340214909123	65
2	557	33.801003056408	66
2	557	33.801003056408	67
2	557	33.801003056408	68
2	580	35.509748719414	69
2	580	35.509748719414	70
2	580	35.509748719414	71
2	611	37.04807418396	72
2	611	37.04807418396	73
2	611	37.04807418396	74
2	630	38.605830358083	75
2	630	38.605830358083	76
2	630	38.605830358083	77
2	655	39.71793149579	78
2	655	39.71793149579	79
2	655	39.71793149579	80
2	680	41.6167993419	81
2	680	41.6167993419	82
2	680	41.6167993419	83
2	705	43.181042402632	84
2	705	43.181042402632	85
2	705	43.181042402632	86
2	729	45.038131149963	87
2	729	45.038131149963	88
2	729	45.038131149963	89
2	754	46.960494087634	90
2	754	46.960494087634	91
2	754	46.960494087634	92
2	779	48.384963594063	93
2	779	48.384963594063	94
2	779	48.384963594063	95
2	804	50.096458493392	96
2	804	50.096458493392	97
2	804	50.096458493392	98
2	830	51.773242240854	99
2	830	51.773242240854	100
2	830	51.773242240854	101
2	855	53.385708201596	102
2	855	53.385708201596	103
2	855	53.385708201596	104
2	883	55.310641022489	105
2	883	55.310641022489	106
2	883	55.310641022489	107
2	904	56.667765512154	108
2	904	56.667765512154	109
2	904	56.667765512154	110
2	933	57.844137647784	111
2	933	57.844137647784	112
2	933	57.844137647784	113
2	954	59.614937261764	114
2	954	59.614937261764	115
2	954	59.614937261764	116
2	979	61.426342199596	117
2	979	61.426342199596	118
2	979	61.426342199596	119
2	1004	62.443702853414	120
2	1004	62.443702853414	121
2	1004	62.443702853414	122
2	1029	64.280438509075	123
2	1029	64.280438509075	124
2	1029	64.280438509075	125
2	1054	65.437095709288	126
2	1054	65.437095709288	127
2	1054	65.437095709288	128
2	1087	67.208008804412	129
2	1087	67.208008804412	130
2	1087	67.208008804412	131
2	1104	68.912639983584	132
2	1104	68.912639983584	133
2	1104	68.912639983584	134
2	1129	70.524983809336	135
2	1129	70.524983809336	136
2	1129	70.524983809336	137
2	1155	71.619803601024	138
2	1155	71.619803601024	139
2	1155	71.619803601024	140
2	1179	73.396635181685	141
2	1179	73.396635181685	142
2	1179	73.396635181685	143
2	1204	75.087941310329	144
2	1204	75.087941310329	145
2	1204	75.087941310329	146
2	1230	76.951021932764	147
2	1230	76.951021932764	148
2	1230	76.951021932764	149
2	1257	78.215385669439	150
2	1257	78.215385669439	151
2	1257	78.215385669439	152
2	1279	79.741516380614	153
2	1279	79.741516380614	154
2	1279	79.741516380614	155
2	1304	81.590854770152	156
2	1304	81.590854770152	157
2	1304	81.590854770152	158
2	1330	83.227657081768	159
2	1330	83.227657081768	160
2	1330	83.227657081768	161
2	1354	84.221881001268	162
2	1354	84.221881001268	163
2	1354	84.221881001268	164
2	1382	86.021502741489	165
2	1382	86.021502741489	166
2	1382	86.021502741489	167
2	1405	87.472136598249	168
2	1405	87.472136598249	169
2	1405	87.472136598249	170
2	1429	89.337152962552	171
2	1429	89.337152962552	172
2	1429	89.337152962552	173
2	1454	91.306090265139	174
2	1454	91.306090265139	175
2	1454	91.306090265139	176
2	1480	92.938640340482	177
2	1480	92.938640340482	178
2	1480	92.938640340482	179
2	1504	94.135885732928	180
2	1504	94.135885732928	181
2	1504	94.135885732928	182
2	1529	95.288967217625	183
2	1529	95.288967217625	184
2	1529	95.288967217625	185
2	1554	96.557239605074	186
2	1554	96.557239605074	187
2	1554	96.557239605074	188
2	1579	97.67237486567	189
2	1579	97.67237486567	190
2	1579	97.67237486567	191
2	1607	99.506919704165	192
2	1607	99.506919704165	193
2	1607	99.506919704165	194
2	1629	101.256949173692	195
2	1629	101.256949173692	196
2	1629	101.256949173692	197
2	1655	102.492533041094	198
2	1655	102.492533041094	199
2	1655	102.492533041094	200
2	1679	103.734052121061	201
2	1679	103.734052121061	202
2	1679	103.734052121061	203
2	1704	105.283587385589	204
2	1704	105.283587385589	205
2	1704	105.283587385589	206
2	1729	106.695773930614	207
2	1729	106.695773930614	208
2	1729	106.695773930614	209
2	1754	108.673208352847	210
2	1754	108.673208352847	211
2	1754	108.673208352847	212
2	1779	110.143328693179	213
2	1779	110.143328693179	214
2	1779	110.143328693179	215
2	1807	112.019707456467	216
2	1807	112.019707456467	217
2	1807	112.019707456467	218
2	1830	113.051960292199	219
2	1830	113.051960292199	220
2	1830	113.051960292199	221
2	1854	114.412233254537	222
2	1854	114.412233254537	223
2	1854	114.412233254537	224
2	1879	116.028677888578	225
2	1879	116.028677888578	226
2	1879	116.028677888578	227
2	1905	118.016233279034	228
2	1905	118.016233279034	229
2	1905	118.016233279034	230
2	1929	119.837368361019	231
2	1929	119.837368361019	232
2	1929	119.837368361019	233
2	1955	121.744363936126	234
2	1955	121.744363936126	235
2	1955	121.744363936126	236
2	1979	122.977120504486	237
2	1979	122.977120504486	238
2	1979	122.977120504486	239
2	2004	124.913329145338	240
2	2004	124.913329145338	241
2	2004	124.913329145338	242
2	2030	126.627626235557	243
2	2030	126.627626235557	244
2	2030	126.627626235557	245
2	2054	128.052306943262	246
2	2054	128.052306943262	247
2	2054	128.052306943262	248
2	2083	129.189785940805	249
2	2083	129.189785940805	250
2	2083	129.189785940805	251
2	2104	130.759940174857	252
2	2104	130.759940174857	253
2	2104	130.759940174857	254
2	2130	132.069004138919	255
2	2130	132.069004138919	256
2	2130	132.069004138919	257
2	2154	133.299192721025	258
2	2154	133.299192721025	259
2	2154	133.299192721025	260
2	2180	134.932772039062	261
2	2180	134.932772039062	262
2	2180	134.932772039062	263
2	2205	136.226774919663	264
2	2205	136.226774919663	265
2	2205	136.226774919663	266
2	2229	137.413148698039	267
2	2229	137.413148698039	268
2	2229	137.413148698039	269
2	2255	138.555115512409	270
2	2255	138.555115512409	271
2	2255	138.555115512409	272
2	2279	140.269683791553	273
2	2279	140.269683791553	274
2	2279	140.269683791553	275
2	2305	141.800262383835	276
2	2305	141.800262383835	277
2	2305	141.800262383835	278
2	2330	143.553848866935	279
2	2330	143.553848866935	280
2	2330	143.553848866935	281
2	2355	145.144063845731	282
2	2355	145.144063845731	283
2	2355	145.144063845731	284
2	2380	147.012603400396	285
2	2380	147.012603400396	286
2	2380	147.012603400396	287
2	2408	148.953689514239	288
2	2408	148.953689514239	289
2	2408	148.953689514239	290
2	2429	150.332413471742	291
2	2429	150.332413471742	292
2	2429	150.332413471742	293
2	2455	151.73573541604	294
2	2455	151.73573541604	295
2	2455	151.73573541604	296
2	2483	152.932159239578	297
2	2483	152.932159239578	298
2	2483	152.932159239578	299
2	2504	154.026761160998	300
2	2504	154.026761160998	301
2	2504	154.026761160998	302
2	2533	155.633710567241	303
2	2533	155.633710567241	304
2	2533	155.633710567241	305
2	2555	156.657233300401	306
2	2555	156.657233300401	307
2	2555	156.657233300401	308
2	2580	158.34876777979	309
2	2580	158.34876777979	310
2	2580	158.34876777979	311
2	2604	159.993435617066	312
2	2604	159.993435617066	313
2	2604	159.993435617066	314
2	2630	161.812613497912	315
2	2630	161.812613497912	316
2	2630	161.812613497912	317
2	2658	163.10117930496	318
2	2658	163.10117930496	319
2	2658	163.10117930496	320
2	2680	164.759371088561	321
2	2680	164.759371088561	322
2	2680	164.759371088561	323
2	2705	166.482304811828	324
2	2705	166.482304811828	325
2	2705	166.482304811828	326
2	2729	168.1426917894	327
2	2729	168.1426917894	328
2	2729	168.1426917894	329
2	2757	169.728965114703	330
2	2757	169.728965114703	331
2	2757	169.728965114703	332
2	2786	171.589459422471	333
2	2786	171.589459422471	334
2	2786	171.589459422471	335
2	2804	172.991392554652	336
2	2804	172.991392554652	337
2	2804	172.991392554652	338
2	2829	174.250576700901	339
2	2829	174.250576700901	340
2	2829	174.250576700901	341
2	2858	175.360865827425	342
2	2858	175.360865827425	343
2	2858	175.360865827425	344
2	2883	176.866740434949	345
2	2883	176.866740434949	346
2	2883	176.866740434949	347
2	2905	178.391900929538	348
2	2905	178.391900929538	349
2	2905	178.391900929538	350
2	2929	179.697416447102	351
2	2929	179.697416447102	352
2	2929	179.697416447102	353
2	2954	181.074701165691	354
2	2954	181.074701165691	355
2	2954	181.074701165691	356
2	2982	182.921033709254	357
2	2982	182.921033709254	358
2	2982	182.921033709254	359
2	3004	184.666365126306	360
2	3004	184.666365126306	361
2	3004	184.666365126306	362
2	3030	185.80718058127	363
2	3030	185.80718058127	364
2	3030	185.80718058127	365
2	3055	187.545434576276	366
2	3055	187.545434576276	367
2	3055	187.545434576276	368
2	3079	188.594083588713	369
2	3079	188.594083588713	370
2	3079	188.594083588713	371
2	3108	190.052315289035	372
2	3108	190.052315289035	373
2	3108	190.052315289035	374
2	3129	191.097867030054	375
2	3129	191.097867030054	376
2	3129	191.097867030054	377
2	3154	192.125198908637	378
2	3154	192.125198908637	379
2	3154	192.125198908637	380
2	3179	194.119133831551	381
2	3179	194.119133831551	382
2	3179	194.119133831551	383
2	3208	195.586670337254	384
2	3208	195.586670337254	385
2	3208	195.586670337254	386
2	3236	196.665431025727	387
2	3236	196.665431025727	388
2	3236	196.665431025727	389
2	3254	198.309284826474	390
2	3254	198.309284826474	391
2	3254	198.309284826474	392
2	3279	199.318011087911	393
2	3279	199.318011087911	394
2	3279	199.318011087911	395
2	3304	200.872671015418	396
2	3304	200.872671015418	397
2	3304	200.872671015418	398
2	3329	202.099937966071	399
2	3329	202.099937966071	400
2	3329	202.099937966071	401
2	3358	203.595960803654	402
2	3358	203.595960803654	403
2	3358	203.595960803654	404
2	3383	205.183126372885	405
2	3383	205.183126372885	406
2	3383	205.183126372885	407
2	3404	206.731360164258	408
2	3404	206.731360164258	409
2	3404	206.731360164258	410
2	3429	207.891390362493	411
2	3429	207.891390362493	412
2	3429	207.891390362493	413
2	3454	209.672772194523	414
2	3454	209.672772194523	415
2	3454	209.672772194523	416
2	3479	211.400083309637	417
2	3479	211.400083309637	418
2	3479	211.400083309637	419
2	3505	213.163710092814	420
2	3505	213.163710092814	421
2	3505	213.163710092814	422
2	3530	214.513130215668	423
2	3530	214.513130215668	424
2	3530	214.513130215668	425
2	3555	216.333811519839	426
2	3555	216.333811519839	427
2	3555	216.333811519839	428
2	3579	217.344538878868	429
2	3579	217.344538878868	430
2	3579	217.344538878868	431
2	3605	218.560502074184	432
2	3605	218.560502074184	433
2	3605	218.560502074184	434
2	3630	220.126139786762	435
2	3630	220.126139786762	436
2	3630	220.126139786762	437
2	3658	221.922043247692	438
2	3658	221.922043247692	439
2	3658	221.922043247692	440
2	3679	223.639186211833	441
2	3679	223.639186211833	442
2	3679	223.639186211833	443
2	3705	225.438146743633	444
2	3705	225.438146743633	445
2	3705	225.438146743633	446
2	3730	227.245071767725	447
2	3730	227.245071767725	448
2	3730	227.245071767725	449
2	3754	228.937884421921	450
2	3754	228.937884421921	451
2	3754	228.937884421921	452
2	3783	230.43683587248	453
2	3783	230.43683587248	454
2	3783	230.43683587248	455
2	3804	232.202142434876	456
2	3804	232.202142434876	457
2	3804	232.202142434876	458
2	3829	234.104184356151	459
2	3829	234.104184356151	460
2	3829	234.104184356151	461
2	3854	235.995067450368	462
2	3854	235.995067450368	463
2	3854	235.995067450368	464
2	3879	237.199060111398	465
2	3879	237.199060111398	466
2	3879	237.199060111398	467
2	3904	238.566528812457	468
2	3904	238.566528812457	469
2	3904	238.566528812457	470
3	11	0.15431623761	0
3	11	0.15431623761	1
3	11	0.15431623761	2
3	36	1.22180214815	3
3	36	1.22180214815	4
3	36	1.22180214815	5
3	62	2.52413734862	6
3	62	2.52413734862	7
3	62	2.52413734862	8
3	86	4.313390559636	9
3	86	4.313390559636	10
3	86	4.313390559636	11
3	108	5.668155127856	12
3	108	5.668155127856	13
3	108	5.668155127856	14
3	140	7.443971963706	15
3	140	7.443971963706	16
3	140	7.443971963706	17
3	162	9.007677724215	18
3	162	9.007677724215	19
3	162	9.007677724215	20
3	187	10.955196452048	21
3	187	10.955196452048	22
3	187	10.955196452048	23
3	208	12.858941284912	24
3	208	12.858941284912	25
3	208	12.858941284912	26
3	244	14.189440464535	27
3	244	14.189440464535	28
3	244	14.189440464535	29
3	260	15.264996906898	30
3	260	15.264996906898	31
3	260	15.264996906898	32
3	285	17.274667715073	33
3	285	17.274667715073	34
3	285	17.274667715073	35
3	311	18.615619943559	36
3	311	18.615619943559	37
3	311	18.615619943559	38
3	341	20.275204246341	39
3	341	20.275204246341	40
3	341	20.275204246341	41
3	365	21.757628809468	42
3	365	21.757628809468	43
3	365	21.757628809468	44
3	387	23.521217943386	45
3	387	23.521217943386	46
3	387	23.521217943386	47
3	412	25.261185954556	48
3	412	25.261185954556	49
3	412	25.261185954556	50
3	434	26.538538108599	51
3	434	26.538538108599	52
3	434	26.538538108599	53
3	462	28.346457669616	54
3	462	28.346457669616	55
3	462	28.346457669616	56
3	490	30.086502256223	57
3	490	30.086502256223	58
3	490	30.086502256223	59
3	516	31.237996662471	60
3	516	31.237996662471	61
3	516	31.237996662471	62
3	537	32.350759207208	63
3	537	32.350759207208	64
3	537	32.350759207208	65
3	566	33.834100248519	66
3	566	33.834100248519	67
3	566	33.834100248519	68
3	587	35.527696710051	69
3	587	35.527696710051	70
3	587	35.527696710051	71
3	616	37.064089195955	72
3	616	37.064089195955	73
3	616	37.064089195955	74
3	637	38.62035318293	75
3	637	38.62035318293	76
3	637	38.62035318293	77
3	661	39.73564116422	78
3	661	39.73564116422	79
3	661	39.73564116422	80
3	690	41.63945880107	81
3	690	41.63945880107	82
3	690	41.63945880107	83
3	712	43.197288637069	84
3	712	43.197288637069	85
3	712	43.197288637069	86
3	740	45.06273053847	87
3	740	45.06273053847	88
3	740	45.06273053847	89
3	759	46.97214829854	90
3	759	46.97214829854	91
3	759	46.97214829854	92
3	788	48.407413432243	93
3	788	48.407413432243	94
3	788	48.407413432243	95
3	812	50.112545677457	96
3	812	50.112545677457	97
3	812	50.112545677457	98
3	837	51.795246345438	99
3	837	51.795246345438	100
3	837	51.795246345438	101
3	862	53.405002230422	102
3	862	53.405002230422	103
3	862	53.405002230422	104
3	890	55.323986675417	105
3	890	55.323986675417	106
3	890	55.323986675417	107
3	911	56.684673116892	108
3	911	56.684673116892	109
3	911	56.684673116892	110
3	941	57.86014816002	111
3	941	57.86014816002	112
3	941	57.86014816002	113
3	959	59.632080415001	114
3	959	59.632080415001	115
3	959	59.632080415001	116
3	991	61.45497347447	117
3	991	61.45497347447	118
3	991	61.45497347447	119
3	1010	62.466672176021	120
3	1010	62.466672176021	121
3	1010	62.466672176021	122
3	1040	64.302803248416	123
3	1040	64.302803248416	124
3	1040	64.302803248416	125
3	1060	65.453861833606	126
3	1060	65.453861833606	127
3	1060	65.453861833606	128
3	1094	67.226824194326	129
3	1094	67.226824194326	130
3	1094	67.226824194326	131
3	1109	68.922713172036	132
3	1109	68.922713172036	133
3	1109	68.922713172036	134
3	1140	70.551574130463	135
3	1140	70.551574130463	136
3	1140	70.551574130463	137
3	1162	71.632898672746	138
3	1162	71.632898672746	139
3	1162	71.632898672746	140
3	1186	73.412380492696	141
3	1186	73.412380492696	142
3	1186	73.412380492696	143
3	1211	75.113603238814	144
3	1211	75.113603238814	145
3	1211	75.113603238814	146
3	1241	76.978085954244	147
3	1241	76.978085954244	148
3	1241	76.978085954244	149
3	1266	78.233708952924	150
3	1266	78.233708952924	151
3	1266	78.233708952924	152
3	1285	79.754103864469	153
3	1285	79.754103864469	154
3	1285	79.754103864469	155
3	1319	81.648040884748	156
3	1319	81.648040884748	157
3	1319	81.648040884748	158
3	1336	83.238081407759	159
3	1336	83.238081407759	160
3	1336	83.238081407759	161
3	1359	84.23774562193	162
3	1359	84.23774562193	163
3	1359	84.23774562193	164
3	1387	86.036973386155	165
3	1387	86.036973386155	166
3	1387	86.036973386155	167
3	1411	87.499560346304	168
3	1411	87.499560346304	169
3	1411	87.499560346304	170
3	1435	89.360518911721	171
3	1435	89.360518911721	172
3	1435	89.360518911721	173
3	1459	91.324692700701	174
3	1459	91.324692700701	175
3	1459	91.324692700701	176
3	1486	92.948702169021	177
3	1486	92.948702169021	178
3	1486	92.948702169021	179
3	1509	94.159445515751	180
3	1509	94.159445515751	181
3	1509	94.159445515751	182
3	1534	95.305378168046	183
3	1534	95.305378168046	184
3	1534	95.305378168046	185
3	1561	96.574493364333	186
3	1561	96.574493364333	187
3	1561	96.574493364333	188
3	1584	97.684276903442	189
3	1584	97.684276903442	190
3	1584	97.684276903442	191
3	1615	99.529580616132	192
3	1615	99.529580616132	193
3	1615	99.529580616132	194
3	1633	101.269283842995	195
3	1633	101.269283842995	196
3	1633	101.269283842995	197
3	1662	102.506799765089	198
3	1662	102.506799765089	199
3	1662	102.506799765089	200
3	1683	103.745719655743	201
3	1683	103.745719655743	202
3	1683	103.745719655743	203
3	1712	105.299827210747	204
3	1712	105.299827210747	205
3	1712	105.299827210747	206
3	1735	106.716111946467	207
3	1735	106.716111946467	208
3	1735	106.716111946467	209
3	1769	108.728351081424	210
3	1769	108.728351081424	211
3	1769	108.728351081424	212
3	1784	110.15711112321	213
3	1784	110.15711112321	214
3	1784	110.15711112321	215
3	1811	112.045851688986	216
3	1811	112.045851688986	217
3	1811	112.045851688986	218
3	1837	113.083887961019	219
3	1837	113.083887961019	220
3	1837	113.083887961019	221
3	1859	114.425950284694	222
3	1859	114.425950284694	223
3	1859	114.425950284694	224
3	1884	116.040667526622	225
3	1884	116.040667526622	226
3	1884	116.040667526622	227
3	1911	118.033855143691	228
3	1911	118.033855143691	229
3	1911	118.033855143691	230
3	1934	119.848850942833	231
3	1934	119.848850942833	232
3	1934	119.848850942833	233
3	1965	121.757877153735	234
3	1965	121.757877153735	235
3	1965	121.757877153735	236
3	1984	122.989325211696	237
3	1984	122.989325211696	238
3	1984	122.989325211696	239
3	2012	124.941960494539	240
3	2012	124.941960494539	241
3	2012	124.941960494539	242
3	2036	126.644785658802	243
3	2036	126.644785658802	244
3	2036	126.644785658802	245
3	2062	128.071170258481	246
3	2062	128.071170258481	247
3	2062	128.071170258481	248
3	2090	129.200832049216	249
3	2090	129.200832049216	250
3	2090	129.200832049216	251
3	2109	130.773552678975	252
3	2109	130.773552678975	253
3	2109	130.773552678975	254
3	2137	132.082608176323	255
3	2137	132.082608176323	256
3	2137	132.082608176323	257
3	2162	133.316816396735	258
3	2162	133.316816396735	259
3	2162	133.316816396735	260
3	2186	134.956226369208	261
3	2186	134.956226369208	262
3	2186	134.956226369208	263
3	2215	136.261285933765	264
3	2215	136.261285933765	265
3	2215	136.261285933765	266
3	2236	137.424392409083	267
3	2236	137.424392409083	268
3	2236	137.424392409083	269
3	2262	138.57160255986	270
3	2262	138.57160255986	271
3	2262	138.57160255986	272
3	2283	140.286273276843	273
3	2283	140.286273276843	274
3	2283	140.286273276843	275
3	2311	141.811084235887	276
3	2311	141.811084235887	277
3	2311	141.811084235887	278
3	2336	143.574520980389	279
3	2336	143.574520980389	280
3	2336	143.574520980389	281
3	2361	145.154224685329	282
3	2361	145.154224685329	283
3	2361	145.154224685329	284
3	2386	147.028948029493	285
3	2386	147.028948029493	286
3	2386	147.028948029493	287
3	2419	148.975682864106	288
3	2419	148.975682864106	289
3	2419	148.975682864106	290
3	2436	150.362133986162	291
3	2436	150.362133986162	292
3	2436	150.362133986162	293
3	2465	151.759326334302	294
3	2465	151.759326334302	295
3	2465	151.759326334302	296
3	2494	152.954149612322	297
3	2494	152.954149612322	298
3	2494	152.954149612322	299
3	2509	154.04004961297	300
3	2509	154.04004961297	301
3	2509	154.04004961297	302
3	2544	155.679876151275	303
3	2544	155.679876151275	304
3	2544	155.679876151275	305
3	2562	156.675135944832	306
3	2562	156.675135944832	307
3	2562	156.675135944832	308
3	2586	158.362121393964	309
3	2586	158.362121393964	310
3	2586	158.362121393964	311
3	2610	160.0097355295	312
3	2610	160.0097355295	313
3	2610	160.0097355295	314
3	2636	161.838097212158	315
3	2636	161.838097212158	316
3	2636	161.838097212158	317
3	2666	163.111640783759	318
3	2666	163.111640783759	319
3	2666	163.111640783759	320
3	2686	164.770425030788	321
3	2686	164.770425030788	322
3	2686	164.770425030788	323
3	2711	166.497135379515	324
3	2711	166.497135379515	325
3	2711	166.497135379515	326
3	2735	168.176851272289	327
3	2735	168.176851272289	328
3	2735	168.176851272289	329
3	2761	169.750791760244	330
3	2761	169.750791760244	331
3	2761	169.750791760244	332
3	2790	171.602076389637	333
3	2790	171.602076389637	334
3	2790	171.602076389637	335
3	2809	173.006698287421	336
3	2809	173.006698287421	337
3	2809	173.006698287421	338
3	2834	174.26692423411	339
3	2834	174.26692423411	340
3	2834	174.26692423411	341
3	2866	175.374842807178	342
3	2866	175.374842807178	343
3	2866	175.374842807178	344
3	2890	176.881772965905	345
3	2890	176.881772965905	346
3	2890	176.881772965905	347
3	2912	178.404040284055	348
3	2912	178.404040284055	349
3	2912	178.404040284055	350
3	2934	179.709768141816	351
3	2934	179.709768141816	352
3	2934	179.709768141816	353
3	2959	181.086081362341	354
3	2959	181.086081362341	355
3	2959	181.086081362341	356
3	2987	182.93520328281	357
3	2987	182.93520328281	358
3	2987	182.93520328281	359
3	3016	184.69134373419	360
3	3016	184.69134373419	361
3	3016	184.69134373419	362
3	3037	185.817540780647	363
3	3037	185.817540780647	364
3	3037	185.817540780647	365
3	3066	187.576632736791	366
3	3066	187.576632736791	367
3	3066	187.576632736791	368
3	3090	188.619037802335	369
3	3090	188.619037802335	370
3	3090	188.619037802335	371
3	3116	190.062741557898	372
3	3116	190.062741557898	373
3	3116	190.062741557898	374
3	3133	191.111286911225	375
3	3133	191.111286911225	376
3	3133	191.111286911225	377
3	3160	192.147880028971	378
3	3160	192.147880028971	379
3	3160	192.147880028971	380
3	3187	194.131189315156	381
3	3187	194.131189315156	382
3	3187	194.131189315156	383
3	3219	195.602411104873	384
3	3219	195.602411104873	385
3	3219	195.602411104873	386
3	3244	196.678421395318	387
3	3244	196.678421395318	388
3	3244	196.678421395318	389
3	3261	198.322678948494	390
3	3261	198.322678948494	391
3	3261	198.322678948494	392
3	3283	199.331771432563	393
3	3283	199.331771432563	394
3	3283	199.331771432563	395
3	3312	200.902598655835	396
3	3312	200.902598655835	397
3	3312	200.902598655835	398
3	3333	202.110832764497	399
3	3333	202.110832764497	400
3	3333	202.110832764497	401
3	3366	203.616797486811	402
3	3366	203.616797486811	403
3	3366	203.616797486811	404
3	3394	205.204973433018	405
3	3394	205.204973433018	406
3	3394	205.204973433018	407
3	3416	206.76803412106	408
3	3416	206.76803412106	409
3	3416	206.76803412106	410
3	3435	207.908088935111	411
3	3435	207.908088935111	412
3	3435	207.908088935111	413
3	3460	209.689778131577	414
3	3460	209.689778131577	415
3	3460	209.689778131577	416
3	3490	211.424077188324	417
3	3490	211.424077188324	418
3	3490	211.424077188324	419
3	3511	213.180558395849	420
3	3511	213.180558395849	421
3	3511	213.180558395849	422
3	3540	214.533166507878	423
3	3540	214.533166507878	424
3	3540	214.533166507878	425
3	3561	216.345111778658	426
3	3561	216.345111778658	427
3	3561	216.345111778658	428
3	3583	217.355000386305	429
3	3583	217.355000386305	430
3	3583	217.355000386305	431
3	3611	218.572262717014	432
3	3611	218.572262717014	433
3	3611	218.572262717014	434
3	3641	220.15642145827	435
3	3641	220.15642145827	436
3	3641	220.15642145827	437
3	3669	221.981387567374	438
3	3669	221.981387567374	439
3	3669	221.981387567374	440
3	3683	223.651091012973	441
3	3683	223.651091012973	442
3	3683	223.651091012973	443
3	3711	225.453276873117	444
3	3711	225.453276873117	445
3	3711	225.453276873117	446
3	3744	227.305244385043	447
3	3744	227.305244385043	448
3	3744	227.305244385043	449
3	3762	228.952655461676	450
3	3762	228.952655461676	451
3	3762	228.952655461676	452
3	3791	230.453955263107	453
3	3791	230.453955263107	454
3	3791	230.453955263107	455
3	3809	232.221346082174	456
3	3809	232.221346082174	457
3	3809	232.221346082174	458
3	3840	234.1331969921	459
3	3840	234.1331969921	460
3	3840	234.1331969921	461
3	3866	236.017645008721	462
3	3866	236.017645008721	463
3	3866	236.017645008721	464
3	3887	237.21424254919	465
3	3887	237.21424254919	466
3	3887	237.21424254919	467
3	3909	238.584498935686	468
3	3909	238.584498935686	469
3	3909	238.584498935686	470
4	12	0.158289352909	0
4	12	0.158289352909	1
4	12	0.158289352909	2
4	37	1.228830454189	3
4	37	1.228830454189	4
4	37	1.228830454189	5
4	61	2.51439108711	6
4	61	2.51439108711	7
4	61	2.51439108711	8
4	87	4.31777363058	9
4	87	4.31777363058	10
4	87	4.31777363058	11
4	109	5.670266651566	12
4	109	5.670266651566	13
4	109	5.670266651566	14
4	136	7.431119277043	15
4	136	7.431119277043	16
4	136	7.431119277043	17
4	158	8.999362978416	18
4	158	8.999362978416	19
4	158	8.999362978416	20
4	186	10.951186936239	21
4	186	10.951186936239	22
4	186	10.951186936239	23
4	212	12.870133724476	24
4	212	12.870133724476	25
4	212	12.870133724476	26
4	233	14.083683794457	27
4	233	14.083683794457	28
4	233	14.083683794457	29
4	259	15.264726485335	30
4	259	15.264726485335	31
4	259	15.264726485335	32
4	284	17.272831867015	33
4	284	17.272831867015	34
4	284	17.272831867015	35
4	312	18.620790254879	36
4	312	18.620790254879	37
4	312	18.620790254879	38
4	333	20.249082423005	39
4	333	20.249082423005	40
4	333	20.249082423005	41
4	358	21.73535729656	42
4	358	21.73535729656	43
4	358	21.73535729656	44
4	386	23.520435767485	45
4	386	23.520435767485	46
4	386	23.520435767485	47
4	409	25.257483230335	48
4	409	25.257483230335	49
4	409	25.257483230335	50
4	437	26.541050669841	51
4	437	26.541050669841	52
4	437	26.541050669841	53
4	458	28.342111784187	54
4	458	28.342111784187	55
4	458	28.342111784187	56
4	483	30.07467905105	57
4	483	30.07467905105	58
4	483	30.07467905105	59
4	509	31.224810757641	60
4	509	31.224810757641	61
4	509	31.224810757641	62
4	533	32.344633497219	63
4	533	32.344633497219	64
4	533	32.344633497219	65
4	558	33.801774802106	66
4	558	33.801774802106	67
4	558	33.801774802106	68
4	586	35.521555101898	69
4	586	35.521555101898	70
4	586	35.521555101898	71
4	607	37.037554539499	72
4	607	37.037554539499	73
4	607	37.037554539499	74
4	636	38.619621296397	75
4	636	38.619621296397	76
4	636	38.619621296397	77
4	662	39.737917825225	78
4	662	39.737917825225	79
4	662	39.737917825225	80
4	686	41.629257897421	81
4	686	41.629257897421	82
4	686	41.629257897421	83
4	711	43.195817969575	84
4	711	43.195817969575	85
4	711	43.195817969575	86
4	734	45.050708557352	87
4	734	45.050708557352	88
4	734	45.050708557352	89
4	760	46.975407981632	90
4	760	46.975407981632	91
4	760	46.975407981632	92
4	783	48.396260095469	93
4	783	48.396260095469	94
4	783	48.396260095469	95
4	811	50.111976981933	96
4	811	50.111976981933	97
4	811	50.111976981933	98
4	836	51.787277300392	99
4	836	51.787277300392	100
4	836	51.787277300392	101
4	861	53.396974926982	102
4	861	53.396974926982	103
4	861	53.396974926982	104
4	882	55.305048266622	105
4	882	55.305048266622	106
4	882	55.305048266622	107
4	912	56.693122547888	108
4	912	56.693122547888	109
4	912	56.693122547888	110
4	932	57.842272634197	111
4	932	57.842272634197	112
4	932	57.842272634197	113
4	958	59.626311612662	114
4	958	59.626311612662	115
4	958	59.626311612662	116
4	984	61.439660795647	117
4	984	61.439660795647	118
4	984	61.439660795647	119
4	1008	62.457891516179	120
4	1008	62.457891516179	121
4	1008	62.457891516179	122
4	1034	64.292450462726	123
4	1034	64.292450462726	124
4	1034	64.292450462726	125
4	1059	65.447312642897	126
4	1059	65.447312642897	127
4	1059	65.447312642897	128
4	1082	67.192926895455	129
4	1082	67.192926895455	130
4	1082	67.192926895455	131
4	1116	68.939296712964	132
4	1116	68.939296712964	133
4	1116	68.939296712964	134
4	1134	70.536746172477	135
4	1134	70.536746172477	136
4	1134	70.536746172477	137
4	1161	71.631274244837	138
4	1161	71.631274244837	139
4	1161	71.631274244837	140
4	1187	73.421883664847	141
4	1187	73.421883664847	142
4	1187	73.421883664847	143
4	1216	75.133955668896	144
4	1216	75.133955668896	145
4	1216	75.133955668896	146
4	1233	76.957914485498	147
4	1233	76.957914485498	148
4	1233	76.957914485498	149
4	1258	78.216101528081	150
4	1258	78.216101528081	151
4	1258	78.216101528081	152
4	1284	79.754069219164	153
4	1284	79.754069219164	154
4	1284	79.754069219164	155
4	1308	81.608119436948	156
4	1308	81.608119436948	157
4	1308	81.608119436948	158
4	1337	83.238112748759	159
4	1337	83.238112748759	160
4	1337	83.238112748759	161
4	1362	84.242054783785	162
4	1362	84.242054783785	163
4	1362	84.242054783785	164
4	1386	86.035792917701	165
4	1386	86.035792917701	166
4	1386	86.035792917701	167
4	1412	87.508461766059	168
4	1412	87.508461766059	169
4	1412	87.508461766059	170
4	1434	89.357585085143	171
4	1434	89.357585085143	172
4	1434	89.357585085143	173
4	1462	91.331406627446	174
4	1462	91.331406627446	175
4	1462	91.331406627446	176
4	1487	92.950371856984	177
4	1487	92.950371856984	178
4	1487	92.950371856984	179
4	1508	94.153601654102	180
4	1508	94.153601654102	181
4	1508	94.153601654102	182
4	1537	95.31305638853	183
4	1537	95.31305638853	184
4	1537	95.31305638853	185
4	1566	96.586527807313	186
4	1566	96.586527807313	187
4	1566	96.586527807313	188
4	1587	97.691893139537	189
4	1587	97.691893139537	190
4	1587	97.691893139537	191
4	1611	99.517187358286	192
4	1611	99.517187358286	193
4	1611	99.517187358286	194
4	1634	101.277732019536	195
4	1634	101.277732019536	196
4	1634	101.277732019536	197
4	1658	102.499149989873	198
4	1658	102.499149989873	199
4	1658	102.499149989873	200
4	1685	103.753485248651	201
4	1685	103.753485248651	202
4	1685	103.753485248651	203
4	1711	105.298392640851	204
4	1711	105.298392640851	205
4	1711	105.298392640851	206
4	1733	106.712671020581	207
4	1733	106.712671020581	208
4	1733	106.712671020581	209
4	1759	108.686594616806	210
4	1759	108.686594616806	211
4	1759	108.686594616806	212
4	1787	110.165215700111	213
4	1787	110.165215700111	214
4	1787	110.165215700111	215
4	1822	112.069423041478	216
4	1822	112.069423041478	217
4	1822	112.069423041478	218
4	1836	113.075318535973	219
4	1836	113.075318535973	220
4	1836	113.075318535973	221
4	1860	114.428149288205	222
4	1860	114.428149288205	223
4	1860	114.428149288205	224
4	1885	116.041880690898	225
4	1885	116.041880690898	226
4	1885	116.041880690898	227
4	1912	118.035120453832	228
4	1912	118.035120453832	229
4	1912	118.035120453832	230
4	1935	119.854824451696	231
4	1935	119.854824451696	232
4	1935	119.854824451696	233
4	1958	121.747856620543	234
4	1958	121.747856620543	235
4	1958	121.747856620543	236
4	1990	122.999466048105	237
4	1990	122.999466048105	238
4	1990	122.999466048105	239
4	2011	124.933983842231	240
4	2011	124.933983842231	241
4	2011	124.933983842231	242
4	2040	126.660287344288	243
4	2040	126.660287344288	244
4	2040	126.660287344288	245
4	2061	128.067017383416	246
4	2061	128.067017383416	247
4	2061	128.067017383416	248
4	2082	129.186317594457	249
4	2082	129.186317594457	250
4	2082	129.186317594457	251
4	2110	130.775060071889	252
4	2110	130.775060071889	253
4	2110	130.775060071889	254
4	2136	132.080466556472	255
4	2136	132.080466556472	256
4	2136	132.080466556472	257
4	2159	133.311747878114	258
4	2159	133.311747878114	259
4	2159	133.311747878114	260
4	2187	134.965046255283	261
4	2187	134.965046255283	262
4	2187	134.965046255283	263
4	2211	136.239639505518	264
4	2211	136.239639505518	265
4	2211	136.239639505518	266
4	2237	137.425960379362	267
4	2237	137.425960379362	268
4	2237	137.425960379362	269
4	2261	138.567559799957	270
4	2261	138.567559799957	271
4	2261	138.567559799957	272
4	2284	140.296158009817	273
4	2284	140.296158009817	274
4	2284	140.296158009817	275
4	2312	141.818316453712	276
4	2312	141.818316453712	277
4	2312	141.818316453712	278
4	2341	143.585385312483	279
4	2341	143.585385312483	280
4	2341	143.585385312483	281
4	2362	145.164178057027	282
4	2362	145.164178057027	283
4	2362	145.164178057027	284
4	2387	147.037535791056	285
4	2387	147.037535791056	286
4	2387	147.037535791056	287
4	2407	148.945021251944	288
4	2407	148.945021251944	289
4	2407	148.945021251944	290
4	2441	150.377169612268	291
4	2441	150.377169612268	292
4	2441	150.377169612268	293
4	2458	151.744054283724	294
4	2458	151.744054283724	295
4	2458	151.744054283724	296
4	2482	152.923339530335	297
4	2482	152.923339530335	298
4	2482	152.923339530335	299
4	2515	154.062542269137	300
4	2515	154.062542269137	301
4	2515	154.062542269137	302
4	2532	155.628242766329	303
4	2532	155.628242766329	304
4	2532	155.628242766329	305
4	2561	156.668099813013	306
4	2561	156.668099813013	307
4	2561	156.668099813013	308
4	2587	158.363693997864	309
4	2587	158.363693997864	310
4	2587	158.363693997864	311
4	2609	160.003830152556	312
4	2609	160.003830152556	313
4	2609	160.003830152556	314
4	2637	161.841229523153	315
4	2637	161.841229523153	316
4	2637	161.841229523153	317
4	2657	163.091582939078	318
4	2657	163.091582939078	319
4	2657	163.091582939078	320
4	2691	164.793472087863	321
4	2691	164.793472087863	322
4	2691	164.793472087863	323
4	2712	166.499012950536	324
4	2712	166.499012950536	325
4	2712	166.499012950536	326
4	2733	168.168076567393	327
4	2733	168.168076567393	328
4	2733	168.168076567393	329
4	2762	169.759219272864	330
4	2762	169.759219272864	331
4	2762	169.759219272864	332
4	2782	171.569730298455	333
4	2782	171.569730298455	334
4	2782	171.569730298455	335
4	2810	173.008872779003	336
4	2810	173.008872779003	337
4	2810	173.008872779003	338
4	2833	174.261069227549	339
4	2833	174.261069227549	340
4	2833	174.261069227549	341
4	2857	175.354987619822	342
4	2857	175.354987619822	343
4	2857	175.354987619822	344
4	2882	176.862564065349	345
4	2882	176.862564065349	346
4	2882	176.862564065349	347
4	2908	178.395724124961	348
4	2908	178.395724124961	349
4	2908	178.395724124961	350
4	2935	179.717047141727	351
4	2935	179.717047141727	352
4	2935	179.717047141727	353
4	2960	181.091722322002	354
4	2960	181.091722322002	355
4	2960	181.091722322002	356
4	2983	182.925801171268	357
4	2983	182.925801171268	358
4	2983	182.925801171268	359
4	3011	184.679200523945	360
4	3011	184.679200523945	361
4	3011	184.679200523945	362
4	3033	185.810856685908	363
4	3033	185.810856685908	364
4	3033	185.810856685908	365
4	3061	187.555585492825	366
4	3061	187.555585492825	367
4	3061	187.555585492825	368
4	3084	188.607722732424	369
4	3084	188.607722732424	370
4	3084	188.607722732424	371
4	3107	190.048240486136	372
4	3107	190.048240486136	373
4	3107	190.048240486136	374
4	3134	191.115399796242	375
4	3134	191.115399796242	376
4	3134	191.115399796242	377
4	3158	192.138586465499	378
4	3158	192.138586465499	379
4	3158	192.138586465499	380
4	3184	194.129225607617	381
4	3184	194.129225607617	382
4	3184	194.129225607617	383
4	3207	195.579798102706	384
4	3207	195.579798102706	385
4	3207	195.579798102706	386
4	3232	196.653344408342	387
4	3232	196.653344408342	388
4	3232	196.653344408342	389
4	3262	198.329830162823	390
4	3262	198.329830162823	391
4	3262	198.329830162823	392
4	3284	199.336711805942	393
4	3284	199.336711805942	394
4	3284	199.336711805942	395
4	3311	200.892613023776	396
4	3311	200.892613023776	397
4	3311	200.892613023776	398
4	3338	202.127913750861	399
4	3338	202.127913750861	400
4	3338	202.127913750861	401
4	3357	203.593388504502	402
4	3357	203.593388504502	403
4	3357	203.593388504502	404
4	3382	205.180638479423	405
4	3382	205.180638479423	406
4	3382	205.180638479423	407
4	3409	206.751982035908	408
4	3409	206.751982035908	409
4	3409	206.751982035908	410
4	3433	207.902045460782	411
4	3433	207.902045460782	412
4	3433	207.902045460782	413
4	3459	209.687285590744	414
4	3459	209.687285590744	415
4	3459	209.687285590744	416
4	3486	211.412067788156	417
4	3486	211.412067788156	418
4	3486	211.412067788156	419
4	3512	213.184264606376	420
4	3512	213.184264606376	421
4	3512	213.184264606376	422
4	3533	214.521608494706	423
4	3533	214.521608494706	424
4	3533	214.521608494706	425
4	3567	216.365622104439	426
4	3567	216.365622104439	427
4	3567	216.365622104439	428
4	3584	217.35575568296	429
4	3584	217.35575568296	430
4	3584	217.35575568296	431
4	3616	218.583759330145	432
4	3616	218.583759330145	433
4	3616	218.583759330145	434
4	3636	220.137724007547	435
4	3636	220.137724007547	436
4	3636	220.137724007547	437
4	3657	221.916217813305	438
4	3657	221.916217813305	439
4	3657	221.916217813305	440
4	3684	223.654001477977	441
4	3684	223.654001477977	442
4	3684	223.654001477977	443
4	3715	225.471483454091	444
4	3715	225.471483454091	445
4	3715	225.471483454091	446
4	3736	227.265389593727	447
4	3736	227.265389593727	448
4	3736	227.265389593727	449
4	3761	228.948425495919	450
4	3761	228.948425495919	451
4	3761	228.948425495919	452
4	3782	230.429644282609	453
4	3782	230.429644282609	454
4	3782	230.429644282609	455
4	3810	232.221835386251	456
4	3810	232.221835386251	457
4	3810	232.221835386251	458
4	3834	234.115192006521	459
4	3834	234.115192006521	460
4	3834	234.115192006521	461
4	3861	236.005775788688	462
4	3861	236.005775788688	463
4	3861	236.005775788688	464
4	3886	237.211638476807	465
4	3886	237.211638476807	466
4	3886	237.211638476807	467
4	3912	238.591785086797	468
4	3912	238.591785086797	469
4	3912	238.591785086797	470
5	16	0.165298448184	0
5	16	0.165298448184	1
5	16	0.165298448184	2
5	45	1.243615716966	3
5	45	1.243615716966	4
5	45	1.243615716966	5
5	70	2.543082949837	6
5	70	2.543082949837	7
5	70	2.543082949837	8
5	94	4.332215563291	9
5	94	4.332215563291	10
5	94	4.332215563291	11
5	119	5.684267706726	12
5	119	5.684267706726	13
5	119	5.684267706726	14
5	141	7.447705687342	15
5	141	7.447705687342	16
5	141	7.447705687342	17
5	172	9.039749636093	18
5	172	9.039749636093	19
5	172	9.039749636093	20
5	195	10.976592135607	21
5	195	10.976592135607	22
5	195	10.976592135607	23
5	214	12.870833089962	24
5	214	12.870833089962	25
5	214	12.870833089962	26
5	238	14.096657164817	27
5	238	14.096657164817	28
5	238	14.096657164817	29
5	269	15.292894946253	30
5	269	15.292894946253	31
5	269	15.292894946253	32
5	295	17.291064112858	33
5	295	17.291064112858	34
5	295	17.291064112858	35
5	316	18.627359277817	36
5	316	18.627359277817	37
5	316	18.627359277817	38
5	340	20.275179668897	39
5	340	20.275179668897	40
5	340	20.275179668897	41
5	370	21.77502440128	42
5	370	21.77502440128	43
5	370	21.77502440128	44
5	397	23.546672554317	45
5	397	23.546672554317	46
5	397	23.546672554317	47
5	419	25.277172571339	48
5	419	25.277172571339	49
5	419	25.277172571339	50
5	441	26.550311695818	51
5	441	26.550311695818	52
5	441	26.550311695818	53
5	470	28.368974024213	54
5	470	28.368974024213	55
5	470	28.368974024213	56
5	491	30.091649063899	57
5	491	30.091649063899	58
5	491	30.091649063899	59
5	515	31.235240558357	60
5	515	31.235240558357	61
5	515	31.235240558357	62
5	545	32.371962756743	63
5	545	32.371962756743	64
5	545	32.371962756743	65
5	565	33.827325830818	66
5	565	33.827325830818	67
5	565	33.827325830818	68
5	594	35.541577960877	69
5	594	35.541577960877	70
5	594	35.541577960877	71
5	612	37.055704691231	72
5	612	37.055704691231	73
5	612	37.055704691231	74
5	644	38.638969503314	75
5	644	38.638969503314	76
5	644	38.638969503314	77
5	669	39.752430674895	78
5	669	39.752430674895	79
5	669	39.752430674895	80
5	691	41.648440789244	81
5	691	41.648440789244	82
5	691	41.648440789244	83
5	719	43.210801538305	84
5	719	43.210801538305	85
5	719	43.210801538305	86
5	741	45.064316241231	87
5	741	45.064316241231	88
5	741	45.064316241231	89
5	767	46.983235124505	90
5	767	46.983235124505	91
5	767	46.983235124505	92
5	791	48.414557138347	93
5	791	48.414557138347	94
5	791	48.414557138347	95
5	820	50.135372342735	96
5	820	50.135372342735	97
5	820	50.135372342735	98
5	841	51.800136668782	99
5	841	51.800136668782	100
5	841	51.800136668782	101
5	872	53.439922567187	102
5	872	53.439922567187	103
5	872	53.439922567187	104
5	891	55.325872678098	105
5	891	55.325872678098	106
5	891	55.325872678098	107
5	919	56.705072206456	108
5	919	56.705072206456	109
5	919	56.705072206456	110
5	937	57.852862088671	111
5	937	57.852862088671	112
5	937	57.852862088671	113
5	964	59.640490710238	114
5	964	59.640490710238	115
5	964	59.640490710238	116
5	990	61.452597329724	117
5	990	61.452597329724	118
5	990	61.452597329724	119
5	1019	62.477468774569	120
5	1019	62.477468774569	121
5	1019	62.477468774569	122
5	1041	64.30932345643	123
5	1041	64.30932345643	124
5	1041	64.30932345643	125
5	1066	65.460816532838	126
5	1066	65.460816532838	127
5	1066	65.460816532838	128
5	1086	67.206071937692	129
5	1086	67.206071937692	130
5	1086	67.206071937692	131
5	1117	68.943818758419	132
5	1117	68.943818758419	133
5	1117	68.943818758419	134
5	1145	70.572432625755	135
5	1145	70.572432625755	136
5	1145	70.572432625755	137
5	1170	71.65187017759	138
5	1170	71.65187017759	139
5	1170	71.65187017759	140
5	1195	73.431972369108	141
5	1195	73.431972369108	142
5	1195	73.431972369108	143
5	1222	75.147388832594	144
5	1222	75.147388832594	145
5	1222	75.147388832594	146
5	1240	76.968720108012	147
5	1240	76.968720108012	148
5	1240	76.968720108012	149
5	1265	78.227680017704	150
5	1265	78.227680017704	151
5	1265	78.227680017704	152
5	1295	79.771663709749	153
5	1295	79.771663709749	154
5	1295	79.771663709749	155
5	1313	81.621594577923	156
5	1313	81.621594577923	157
5	1313	81.621594577923	158
5	1347	83.263933712168	159
5	1347	83.263933712168	160
5	1347	83.263933712168	161
5	1369	84.256228805823	162
5	1369	84.256228805823	163
5	1369	84.256228805823	164
5	1394	86.0499065924	165
5	1394	86.0499065924	166
5	1394	86.0499065924	167
5	1417	87.516278814034	168
5	1417	87.516278814034	169
5	1417	87.516278814034	170
5	1444	89.370609711007	171
5	1444	89.370609711007	172
5	1444	89.370609711007	173
5	1466	91.337730439449	174
5	1466	91.337730439449	175
5	1466	91.337730439449	176
5	1494	92.9623238074	177
5	1494	92.9623238074	178
5	1494	92.9623238074	179
5	1517	94.176807233238	180
5	1517	94.176807233238	181
5	1517	94.176807233238	182
5	1542	95.322459396621	183
5	1542	95.322459396621	184
5	1542	95.322459396621	185
5	1567	96.594073538768	186
5	1567	96.594073538768	187
5	1567	96.594073538768	188
5	1591	97.697814312073	189
5	1591	97.697814312073	190
5	1591	97.697814312073	191
5	1616	99.531791115219	192
5	1616	99.531791115219	193
5	1616	99.531791115219	194
5	1638	101.283620407438	195
5	1638	101.283620407438	196
5	1638	101.283620407438	197
5	1666	102.511054105011	198
5	1666	102.511054105011	199
5	1666	102.511054105011	200
5	1694	103.763949698737	201
5	1694	103.763949698737	202
5	1694	103.763949698737	203
5	1722	105.341419805631	204
5	1722	105.341419805631	205
5	1722	105.341419805631	206
5	1744	106.730530556862	207
5	1744	106.730530556862	208
5	1744	106.730530556862	209
5	1765	108.699053767846	210
5	1765	108.699053767846	211
5	1765	108.699053767846	212
5	1791	110.16994994166	213
5	1791	110.16994994166	214
5	1791	110.16994994166	215
5	1815	112.056636320787	216
5	1815	112.056636320787	217
5	1815	112.056636320787	218
5	1841	113.088803440166	219
5	1841	113.088803440166	220
5	1841	113.088803440166	221
5	1870	114.445600416383	222
5	1870	114.445600416383	223
5	1870	114.445600416383	224
5	1897	116.068857738308	225
5	1897	116.068857738308	226
5	1897	116.068857738308	227
5	1922	118.070233525595	228
5	1922	118.070233525595	229
5	1922	118.070233525595	230
5	1941	119.859992855404	231
5	1941	119.859992855404	232
5	1941	119.859992855404	233
5	1966	121.764485022694	234
5	1966	121.764485022694	235
5	1966	121.764485022694	236
5	1992	123.008002167239	237
5	1992	123.008002167239	238
5	1992	123.008002167239	239
5	2016	124.948781425215	240
5	2016	124.948781425215	241
5	2016	124.948781425215	242
5	2042	126.66850041489	243
5	2042	126.66850041489	244
5	2042	126.66850041489	245
5	2070	128.086375859657	246
5	2070	128.086375859657	247
5	2070	128.086375859657	248
5	2091	129.209036312396	249
5	2091	129.209036312396	250
5	2091	129.209036312396	251
5	2116	130.784156978225	252
5	2116	130.784156978225	253
5	2116	130.784156978225	254
5	2144	132.098575677737	255
5	2144	132.098575677737	256
5	2144	132.098575677737	257
5	2170	133.336344924498	258
5	2170	133.336344924498	259
5	2170	133.336344924498	260
5	2195	134.97966473185	261
5	2195	134.97966473185	262
5	2195	134.97966473185	263
5	2220	136.276185802745	264
5	2220	136.276185802745	265
5	2220	136.276185802745	266
5	2247	137.448387919599	267
5	2247	137.448387919599	268
5	2247	137.448387919599	269
5	2270	138.590203723547	270
5	2270	138.590203723547	271
5	2270	138.590203723547	272
5	2295	140.308198208364	273
5	2295	140.308198208364	274
5	2295	140.308198208364	275
5	2316	141.826830064333	276
5	2316	141.826830064333	277
5	2316	141.826830064333	278
5	2340	143.585303396249	279
5	2340	143.585303396249	280
5	2340	143.585303396249	281
5	2367	145.167415325335	282
5	2367	145.167415325335	283
5	2367	145.167415325335	284
5	2392	147.045541657978	285
5	2392	147.045541657978	286
5	2392	147.045541657978	287
5	2412	148.961361188597	288
5	2412	148.961361188597	289
5	2412	148.961361188597	290
5	2447	150.402753596865	291
5	2447	150.402753596865	292
5	2447	150.402753596865	293
5	2466	151.761210480493	294
5	2466	151.761210480493	295
5	2466	151.761210480493	296
5	2487	152.940867268404	297
5	2487	152.940867268404	298
5	2487	152.940867268404	299
5	2517	154.06493668643	300
5	2517	154.06493668643	301
5	2517	154.06493668643	302
5	2537	155.639285240471	303
5	2537	155.639285240471	304
5	2537	155.639285240471	305
5	2566	156.678157495277	306
5	2566	156.678157495277	307
5	2566	156.678157495277	308
5	2594	158.381947152463	309
5	2594	158.381947152463	310
5	2594	158.381947152463	311
5	2622	160.037481613164	312
5	2622	160.037481613164	313
5	2622	160.037481613164	314
5	2645	161.856398737934	315
5	2645	161.856398737934	316
5	2645	161.856398737934	317
5	2662	163.109121936485	318
5	2662	163.109121936485	319
5	2662	163.109121936485	320
5	2694	164.797197256588	321
5	2694	164.797197256588	322
5	2694	164.797197256588	323
5	2722	166.51906993804	324
5	2722	166.51906993804	325
5	2722	166.51906993804	326
5	2739	168.180366407592	327
5	2739	168.180366407592	328
5	2739	168.180366407592	329
5	2770	169.770641803106	330
5	2770	169.770641803106	331
5	2770	169.770641803106	332
5	2794	171.617582450243	333
5	2794	171.617582450243	334
5	2794	171.617582450243	335
5	2816	173.018243971175	336
5	2816	173.018243971175	337
5	2816	173.018243971175	338
5	2839	174.27572792044	339
5	2839	174.27572792044	340
5	2839	174.27572792044	341
5	2862	175.370523480038	342
5	2862	175.370523480038	343
5	2862	175.370523480038	344
5	2891	176.882219555229	345
5	2891	176.882219555229	346
5	2891	176.882219555229	347
5	2920	178.420170813264	348
5	2920	178.420170813264	349
5	2920	178.420170813264	350
5	2941	179.720524453897	351
5	2941	179.720524453897	352
5	2941	179.720524453897	353
5	2966	181.098365139453	354
5	2966	181.098365139453	355
5	2966	181.098365139453	356
5	2991	182.940257673201	357
5	2991	182.940257673201	358
5	2991	182.940257673201	359
5	3015	184.689830849388	360
5	3015	184.689830849388	361
5	3015	184.689830849388	362
5	3041	185.824286798133	363
5	3041	185.824286798133	364
5	3041	185.824286798133	365
5	3065	187.572212222623	366
5	3065	187.572212222623	367
5	3065	187.572212222623	368
5	3091	188.619690605381	369
5	3091	188.619690605381	370
5	3091	188.619690605381	371
5	3112	190.058318898527	372
5	3112	190.058318898527	373
5	3112	190.058318898527	374
5	3142	191.135226478773	375
5	3142	191.135226478773	376
5	3142	191.135226478773	377
5	3166	192.157634446475	378
5	3166	192.157634446475	379
5	3166	192.157634446475	380
5	3195	194.14543127891	381
5	3195	194.14543127891	382
5	3195	194.14543127891	383
5	3212	195.591734011521	384
5	3212	195.591734011521	385
5	3212	195.591734011521	386
5	3237	196.667110883338	387
5	3237	196.667110883338	388
5	3237	196.667110883338	389
5	3269	198.347651846708	390
5	3269	198.347651846708	391
5	3269	198.347651846708	392
5	3288	199.345258395902	393
5	3288	199.345258395902	394
5	3288	199.345258395902	395
5	3316	200.911072582151	396
5	3316	200.911072582151	397
5	3316	200.911072582151	398
5	3339	202.128713541648	399
5	3339	202.128713541648	400
5	3339	202.128713541648	401
5	3365	203.607763063648	402
5	3365	203.607763063648	403
5	3365	203.607763063648	404
5	3390	205.19445487012	405
5	3390	205.19445487012	406
5	3390	205.19445487012	407
5	3415	206.766818591242	408
5	3415	206.766818591242	409
5	3415	206.766818591242	410
5	3444	207.918451468289	411
5	3444	207.918451468289	412
5	3444	207.918451468289	413
5	3470	209.707618272086	414
5	3470	209.707618272086	415
5	3470	209.707618272086	416
5	3491	211.429839549274	417
5	3491	211.429839549274	418
5	3491	211.429839549274	419
5	3522	213.212359560099	420
5	3522	213.212359560099	421
5	3522	213.212359560099	422
5	3544	214.546786096601	423
5	3544	214.546786096601	424
5	3544	214.546786096601	425
5	3566	216.359983573905	426
5	3566	216.359983573905	427
5	3566	216.359983573905	428
5	3594	217.366025750126	429
5	3594	217.366025750126	430
5	3594	217.366025750126	431
5	3622	218.60086029455	432
5	3622	218.60086029455	433
5	3622	218.60086029455	434
5	3640	220.151679843901	435
5	3640	220.151679843901	436
5	3640	220.151679843901	437
5	3662	221.926900468934	438
5	3662	221.926900468934	439
5	3662	221.926900468934	440
5	3689	223.66275670993	441
5	3689	223.66275670993	442
5	3689	223.66275670993	443
5	3717	225.478272644377	444
5	3717	225.478272644377	445
5	3717	225.478272644377	446
5	3740	227.281401298771	447
5	3740	227.281401298771	448
5	3740	227.281401298771	449
5	3772	228.978810073404	450
5	3772	228.978810073404	451
5	3772	228.978810073404	452
5	3787	230.446391157358	453
5	3787	230.446391157358	454
5	3787	230.446391157358	455
5	3820	232.23486019931	456
5	3820	232.23486019931	457
5	3820	232.23486019931	458
5	3844	234.161258033285	459
5	3844	234.161258033285	460
5	3844	234.161258033285	461
5	3865	236.016444952247	462
5	3865	236.016444952247	463
5	3865	236.016444952247	464
5	3895	237.234054797375	465
5	3895	237.234054797375	466
5	3895	237.234054797375	467
5	3922	238.628714871515	468
5	3922	238.628714871515	469
5	3922	238.628714871515	470
6	17	0.167164941921	0
6	17	0.167164941921	1
6	41	1.235136268595	2
6	41	1.235136268595	3
6	69	2.539666012955	4
6	69	2.539666012955	5
6	98	4.343089897657	6
6	98	4.343089897657	7
6	120	5.685413786716	8
6	120	5.685413786716	9
6	148	7.466843302886	10
6	148	7.466843302886	11
6	169	9.021676104284	12
6	169	9.021676104284	13
6	194	10.969752578189	14
6	194	10.969752578189	15
6	215	12.875923489516	16
6	215	12.875923489516	17
6	248	14.217473501652	18
6	248	14.217473501652	19
6	273	15.322436312153	20
6	273	15.322436312153	21
6	294	17.289116650955	22
6	294	17.289116650955	23
6	323	18.686869445246	24
6	323	18.686869445246	25
6	348	20.29106670309	26
6	348	20.29106670309	27
6	369	21.772906685055	28
6	369	21.772906685055	29
6	394	23.531860976649	30
6	394	23.531860976649	31
6	420	25.277243029492	32
6	420	25.277243029492	33
6	445	26.554728680683	34
6	445	26.554728680683	35
6	469	28.366620241208	36
6	469	28.366620241208	37
6	495	30.097137414336	38
6	495	30.097137414336	39
6	523	31.25390101816	40
6	523	31.25390101816	41
6	544	32.36499830906	42
6	544	32.36499830906	43
6	573	33.869335136254	44
6	573	33.869335136254	45
6	595	35.544453774265	46
6	595	35.544453774265	47
6	623	37.075026754787	48
6	623	37.075026754787	49
6	648	38.65255905	50
6	648	38.65255905	51
6	670	39.752676866721	52
6	670	39.752676866721	53
6	698	41.690299845567	54
6	698	41.690299845567	55
6	723	43.268201611964	56
6	723	43.268201611964	57
6	748	45.074593713982	58
6	748	45.074593713982	59
6	766	46.982428565664	60
6	766	46.982428565664	61
6	798	48.425062882908	62
6	798	48.425062882908	63
6	819	50.126353638399	64
6	819	50.126353638399	65
6	848	51.837245450134	66
6	848	51.837245450134	67
6	869	53.423130552602	68
6	869	53.423130552602	69
6	898	55.350362289155	70
6	898	55.350362289155	71
6	920	56.706118376089	72
6	920	56.706118376089	73
6	948	57.873285123531	74
6	948	57.873285123531	75
6	968	59.643161577727	76
6	968	59.643161577727	77
6	998	61.482912222642	78
6	998	61.482912222642	79
6	1020	62.48223910205	80
6	1020	62.48223910205	81
6	1048	64.326689154947	82
6	1048	64.326689154947	83
6	1070	65.466613172752	84
6	1070	65.466613172752	85
6	1098	67.261875275766	86
6	1098	67.261875275766	87
6	1115	68.9341912504	88
6	1115	68.9341912504	89
6	1144	70.563118383679	90
6	1144	70.563118383679	91
6	1169	71.645328209904	92
6	1169	71.645328209904	93
6	1191	73.422558595502	94
6	1191	73.422558595502	95
6	1215	75.130336912907	96
6	1215	75.130336912907	97
6	1248	76.990698126631	98
6	1248	76.990698126631	99
6	1273	78.244958517586	100
6	1273	78.244958517586	101
6	1294	79.767404153908	102
6	1294	79.767404153908	103
6	1323	81.662702506286	104
6	1323	81.662702506286	105
6	1344	83.248889446372	106
6	1344	83.248889446372	107
6	1373	84.28114221027	108
6	1373	84.28114221027	109
6	1395	86.058693871565	110
6	1395	86.058693871565	111
6	1416	87.510888267169	112
6	1416	87.510888267169	113
6	1445	89.378931233093	114
6	1445	89.378931233093	115
6	1473	91.35735315144	116
6	1473	91.35735315144	117
6	1495	92.971110912119	118
6	1495	92.971110912119	119
6	1523	94.221199697481	120
6	1523	94.221199697481	121
6	1541	95.315767529533	122
6	1541	95.315767529533	123
6	1565	96.586514446915	124
6	1565	96.586514446915	125
6	1592	97.699720371201	126
6	1592	97.699720371201	127
6	1623	99.551253950859	128
6	1623	99.551253950859	129
6	1643	101.288047566614	130
6	1643	101.288047566614	131
6	1673	102.52623210925	132
6	1673	102.52623210925	133
6	1698	103.780909616915	134
6	1698	103.780909616915	135
6	1719	105.322307588517	136
6	1719	105.322307588517	137
6	1745	106.735896569677	138
6	1745	106.735896569677	139
6	1773	108.74701791608	140
6	1773	108.74701791608	141
6	1795	110.177966856141	142
6	1795	110.177966856141	143
6	1816	112.058165072041	144
6	1816	112.058165072041	145
6	1848	113.123673965926	146
6	1848	113.123673965926	147
6	1866	114.437678719554	148
6	1866	114.437678719554	149
6	1894	116.054051905159	150
6	1894	116.054051905159	151
6	1916	118.044194333089	152
6	1916	118.044194333089	153
6	1942	119.86378602993	154
6	1942	119.86378602993	155
6	1973	121.803284020877	156
6	1973	121.803284020877	157
6	1991	123.002076428073	158
6	1991	123.002076428073	159
6	2020	124.956481871132	160
6	2020	124.956481871132	161
6	2041	126.665164778181	162
6	2041	126.665164778181	163
6	2069	128.082781487915	164
6	2069	128.082781487915	165
6	2098	129.254335903694	166
6	2098	129.254335903694	167
6	2120	130.790039947058	168
6	2120	130.790039947058	169
6	2145	132.104884084702	170
6	2145	132.104884084702	171
6	2169	133.327059728062	172
6	2169	133.327059728062	173
6	2194	134.978304630321	174
6	2194	134.978304630321	175
6	2219	136.272358817436	176
6	2219	136.272358817436	177
6	2244	137.436398052833	178
6	2244	137.436398052833	179
6	2269	138.582046456445	180
6	2269	138.582046456445	181
6	2288	140.297592140623	182
6	2288	140.297592140623	183
6	2320	141.829006007151	184
6	2320	141.829006007151	185
6	2342	143.592630496265	186
6	2342	143.592630496265	187
6	2366	145.165309038609	188
6	2366	145.165309038609	189
6	2391	147.041160702464	190
6	2391	147.041160702464	191
6	2423	148.991229792137	192
6	2423	148.991229792137	193
6	2440	150.375022956907	194
6	2440	150.375022956907	195
6	2473	151.787940209359	196
6	2473	151.787940209359	197
6	2498	152.965470879249	198
6	2498	152.965470879249	199
6	2516	154.064434554154	200
6	2516	154.064434554154	201
6	2548	155.719155362246	202
6	2548	155.719155362246	203
6	2573	156.710803250676	204
6	2573	156.710803250676	205
6	2598	158.392375431029	206
6	2598	158.392375431029	207
6	2619	160.024198215404	208
6	2619	160.024198215404	209
6	2641	161.850169644796	210
6	2641	161.850169644796	211
6	2673	163.13796187898	212
6	2673	163.13796187898	213
6	2690	164.784209906315	214
6	2690	164.784209906315	215
6	2716	166.508780324504	216
6	2716	166.508780324504	217
6	2748	168.197032203957	218
6	2748	168.197032203957	219
6	2766	169.767895761305	220
6	2766	169.767895761305	221
6	2798	171.638872224088	222
6	2798	171.638872224088	223
6	2820	173.019207651199	224
6	2820	173.019207651199	225
6	2848	174.317553930591	226
6	2848	174.317553930591	227
6	2873	175.444576333761	228
6	2873	175.444576333761	229
6	2898	176.927641815102	230
6	2898	176.927641815102	231
6	2919	178.42010176883	232
6	2919	178.42010176883	233
6	2942	179.724077564075	234
6	2942	179.724077564075	235
6	2973	181.114291662474	236
6	2973	181.114291662474	237
6	2998	182.996542641987	238
6	2998	182.996542641987	239
6	3023	184.734383750756	240
6	3023	184.734383750756	241
6	3048	185.860434096414	242
6	3048	185.860434096414	243
6	3073	187.595183693786	244
6	3073	187.595183693786	245
6	3098	188.629735208165	246
6	3098	188.629735208165	247
6	3123	190.084798700404	248
6	3123	190.084798700404	249
6	3141	191.13077966373	250
6	3141	191.13077966373	251
6	3170	192.159801687537	252
6	3170	192.159801687537	253
6	3194	194.141521240626	254
6	3194	194.141521240626	255
6	3223	195.617414396216	256
6	3223	195.617414396216	257
6	3248	196.692121694028	258
6	3248	196.692121694028	259
6	3273	198.359054884462	260
6	3273	198.359054884462	261
6	3296	199.363020882999	262
6	3296	199.363020882999	263
6	3323	200.944631292997	264
6	3323	200.944631292997	265
6	3340	202.131384878644	266
6	3340	202.131384878644	267
6	3373	203.633972019895	268
6	3373	203.633972019895	269
6	3398	205.218762024914	270
6	3398	205.218762024914	271
6	3423	206.783851963837	272
6	3423	206.783851963837	273
6	3448	207.934351203913	274
6	3448	207.934351203913	275
6	3469	209.701189117362	276
6	3469	209.701189117362	277
6	3495	211.437214989163	278
6	3495	211.437214989163	279
6	3519	213.195637085716	280
6	3519	213.195637085716	281
6	3545	214.554992324774	282
6	3545	214.554992324774	283
6	3565	216.357273315512	284
6	3565	216.357273315512	285
6	3595	217.367642799863	286
6	3595	217.367642799863	287
6	3615	218.582518862474	288
6	3615	218.582518862474	289
6	3648	220.193112182188	290
6	3648	220.193112182188	291
6	3673	222.001363721895	292
6	3673	222.001363721895	293
6	3695	223.668774381489	294
6	3695	223.668774381489	295
6	3716	225.476902807003	296
6	3716	225.476902807003	297
6	3748	227.316674839727	298
6	3748	227.316674839727	299
6	3769	228.96376119716	300
6	3769	228.96376119716	301
6	3798	230.491145072945	302
6	3798	230.491145072945	303
6	3819	232.233653918019	304
6	3819	232.233653918019	305
6	3848	234.17580230936	306
6	3848	234.17580230936	307
6	3873	236.040474320826	308
6	3873	236.040474320826	309
6	3894	237.22641696761	310
6	3894	237.22641696761	311
6	3916	238.594953152719	312
6	3916	238.594953152719	313
7	23	0.175298448184	0
7	25	0.177164941921	1
7	47	1.245136268595	2
7	50	1.253615716966	3
7	72	2.549666012955	4
7	75	2.553082949837	5
7	97	4.342215563291	6
7	100	4.353089897657	7
7	123	5.694267706726	8
7	125	5.695413786716	9
7	147	7.457705687342	10
7	150	7.476843302886	11
7	171	9.031676104284	12
7	175	9.049749636093	13
7	197	10.979752578189	14
7	200	10.986592135607	15
7	223	12.880833089962	16
7	225	12.885923489516	17
7	243	14.106657164817	18
7	250	14.227473501652	19
7	272	15.302894946253	20
7	275	15.332436312153	21
7	297	17.299116650955	22
7	300	17.301064112858	23
7	322	18.637359277817	24
7	325	18.696869445246	25
7	344	20.285179668897	26
7	350	20.30106670309	27
7	372	21.782906685055	28
7	375	21.78502440128	29
7	396	23.541860976649	30
7	400	23.556672554317	31
7	423	25.287172571339	32
7	425	25.287243029492	33
7	448	26.560311695818	34
7	450	26.564728680683	35
7	472	28.376620241208	36
7	475	28.378974024213	37
7	498	30.101649063899	38
7	500	30.107137414336	39
7	519	31.245240558357	40
7	525	31.26390101816	41
7	547	32.37499830906	42
7	550	32.381962756743	43
7	569	33.837325830818	44
7	575	33.879335136254	45
7	598	35.551577960877	46
7	600	35.554453774265	47
7	619	37.065704691231	48
7	625	37.085026754787	49
7	647	38.648969503314	50
7	650	38.66255905	51
7	673	39.762430674895	52
7	675	39.762676866721	53
7	697	41.658440789244	54
7	700	41.700299845567	55
7	722	43.220801538305	56
7	725	43.278201611964	57
7	747	45.074316241231	58
7	750	45.084593713982	59
7	772	46.992428565664	60
7	775	46.993235124505	61
7	797	48.424557138347	62
7	800	48.435062882908	63
7	822	50.136353638399	64
7	825	50.145372342735	65
7	847	51.810136668782	66
7	850	51.847245450134	67
7	871	53.433130552602	68
7	875	53.449922567187	69
7	897	55.335872678098	70
7	900	55.360362289155	71
7	923	56.715072206456	72
7	925	56.716118376089	73
7	944	57.862862088671	74
7	950	57.883285123531	75
7	973	59.650490710238	76
7	975	59.653161577727	77
7	994	61.462597329724	78
7	1000	61.492912222642	79
7	1023	62.487468774569	80
7	1025	62.49223910205	81
7	1047	64.31932345643	82
7	1050	64.336689154947	83
7	1073	65.470816532838	84
7	1075	65.476613172752	85
7	1090	67.216071937692	86
7	1100	67.271875275766	87
7	1119	68.9441912504	88
7	1125	68.953818758419	89
7	1147	70.573118383679	90
7	1150	70.582432625755	91
7	1172	71.655328209904	92
7	1175	71.66187017759	93
7	1197	73.432558595502	94
7	1200	73.441972369108	95
7	1218	75.140336912907	96
7	1225	75.157388832594	97
7	1244	76.978720108012	98
7	1250	77.000698126631	99
7	1269	78.237680017704	100
7	1275	78.254958517586	101
7	1297	79.777404153908	102
7	1300	79.781663709749	103
7	1318	81.631594577923	104
7	1325	81.672702506286	105
7	1346	83.258889446372	106
7	1350	83.273933712168	107
7	1372	84.266228805823	108
7	1375	84.29114221027	109
7	1398	86.0599065924	110
7	1400	86.068693871565	111
7	1422	87.520888267169	112
7	1425	87.526278814034	113
7	1448	89.380609711007	114
7	1450	89.388931233093	115
7	1472	91.347730439449	116
7	1475	91.36735315144	117
7	1498	92.9723238074	118
7	1500	92.981110912119	119
7	1522	94.186807233238	120
7	1525	94.231199697481	121
7	1547	95.325767529533	122
7	1550	95.332459396621	123
7	1569	96.596514446915	124
7	1575	96.604073538768	125
7	1598	97.707814312073	126
7	1600	97.709720371201	127
7	1622	99.541791115219	128
7	1625	99.561253950859	129
7	1646	101.293620407438	130
7	1650	101.298047566614	131
7	1672	102.521054105011	132
7	1675	102.53623210925	133
7	1697	103.773949698737	134
7	1700	103.790909616915	135
7	1721	105.332307588517	136
7	1725	105.351419805631	137
7	1748	106.740530556862	138
7	1750	106.745896569677	139
7	1768	108.709053767846	140
7	1775	108.75701791608	141
7	1798	110.17994994166	142
7	1800	110.187966856141	143
7	1819	112.066636320787	144
7	1821	112.068165072041	145
7	1847	113.098803440166	146
7	1850	113.133673965926	147
7	1872	114.447678719554	148
7	1875	114.455600416383	149
7	1896	116.064051905159	150
7	1900	116.078857738308	151
7	1921	118.054194333089	152
7	1925	118.080233525595	153
7	1948	119.869992855404	154
7	1950	119.87378602993	155
7	1972	121.774485022694	156
7	1975	121.813284020877	157
7	1997	123.012076428073	158
7	2000	123.018002167239	159
7	2023	124.958781425215	160
7	2025	124.966481871132	161
7	2047	126.675164778181	162
7	2050	126.67850041489	163
7	2072	128.092781487915	164
7	2075	128.096375859657	165
7	2097	129.219036312396	166
7	2100	129.264335903694	167
7	2123	130.794156978225	168
7	2125	130.800039947058	169
7	2148	132.108575677737	170
7	2150	132.114884084702	171
7	2172	133.337059728062	172
7	2175	133.346344924498	173
7	2197	134.988304630321	174
7	2200	134.98966473185	175
7	2222	136.282358817436	176
7	2225	136.286185802745	177
7	2246	137.446398052833	178
7	2250	137.458387919599	179
7	2272	138.592046456445	180
7	2275	138.600203723547	181
7	2294	140.307592140623	182
7	2300	140.318198208364	183
7	2323	141.836830064333	184
7	2325	141.839006007151	185
7	2345	143.595303396249	186
7	2350	143.602630496265	187
7	2372	145.175309038609	188
7	2375	145.177415325335	189
7	2397	147.051160702464	190
7	2400	147.055541657978	191
7	2418	148.971361188597	192
7	2425	149.001229792137	193
7	2443	150.385022956907	194
7	2450	150.412753596865	195
7	2472	151.771210480493	196
7	2475	151.797940209359	197
7	2493	152.950867268404	198
7	2500	152.975470879249	199
7	2522	154.074434554154	200
7	2525	154.07493668643	201
7	2543	155.649285240471	202
7	2550	155.729155362246	203
7	2572	156.688157495277	204
7	2575	156.720803250676	205
7	2597	158.391947152463	206
7	2600	158.402375431029	207
7	2621	160.034198215404	208
7	2625	160.047481613164	209
7	2647	161.860169644796	210
7	2650	161.866398737934	211
7	2669	163.119121936485	212
7	2675	163.14796187898	213
7	2693	164.794209906315	214
7	2700	164.807197256588	215
7	2721	166.518780324504	216
7	2725	166.52906993804	217
7	2747	168.190366407592	218
7	2750	168.207032203957	219
7	2772	169.777895761305	220
7	2775	169.780641803106	221
7	2797	171.627582450243	222
7	2800	171.648872224088	223
7	2823	173.028243971175	224
7	2825	173.029207651199	225
7	2847	174.28572792044	226
7	2850	174.327553930591	227
7	2869	175.380523480038	228
7	2875	175.454576333761	229
7	2897	176.892219555229	230
7	2900	176.937641815102	231
7	2922	178.43010176883	232
7	2925	178.430170813264	233
7	2948	179.730524453897	234
7	2950	179.734077564075	235
7	2972	181.108365139453	236
7	2975	181.124291662474	237
7	2997	182.950257673201	238
7	3000	183.006542641987	239
7	3019	184.699830849388	240
7	3025	184.744383750756	241
7	3047	185.834286798133	242
7	3050	185.870434096414	243
7	3069	187.582212222623	244
7	3075	187.605183693786	245
7	3097	188.629690605381	246
7	3100	188.639735208165	247
7	3119	190.068318898527	248
7	3125	190.094798700404	249
7	3144	191.14077966373	250
7	3147	191.145226478773	251
7	3173	192.167634446475	252
7	3175	192.169801687537	253
7	3197	194.151521240626	254
7	3200	194.15543127891	255
7	3218	195.601734011521	256
7	3225	195.627414396216	257
7	3243	196.677110883338	258
7	3250	196.702121694028	259
7	3272	198.357651846708	260
7	3275	198.369054884462	261
7	3294	199.355258395902	262
7	3300	199.373020882999	263
7	3322	200.921072582151	264
7	3325	200.954631292997	265
7	3348	202.138713541648	266
7	3350	202.141384878644	267
7	3369	203.617763063648	268
7	3375	203.643972019895	269
7	3393	205.20445487012	270
7	3400	205.228762024914	271
7	3419	206.776818591242	272
7	3425	206.793851963837	273
7	3447	207.928451468289	274
7	3450	207.944351203913	275
7	3472	209.711189117362	276
7	3475	209.717618272086	277
7	3498	211.439839549274	278
7	3500	211.447214989163	279
7	3521	213.205637085716	280
7	3525	213.222359560099	281
7	3548	214.556786096601	282
7	3550	214.564992324774	283
7	3569	216.367273315512	284
7	3572	216.369983573905	285
7	3598	217.376025750126	286
7	3600	217.377642799863	287
7	3618	218.592518862474	288
7	3625	218.61086029455	289
7	3644	220.161679843901	290
7	3650	220.203112182188	291
7	3668	221.936900468934	292
7	3675	222.011363721895	293
7	3698	223.67275670993	294
7	3700	223.678774381489	295
7	3722	225.486902807003	296
7	3725	225.488272644377	297
7	3743	227.291401298771	298
7	3750	227.326674839727	299
7	3771	228.97376119716	300
7	3775	228.988810073404	301
7	3794	230.456391157358	302
7	3800	230.501145072945	303
7	3822	232.243653918019	304
7	3825	232.24486019931	305
7	3847	234.171258033285	306
7	3850	234.18580230936	307
7	3869	236.026444952247	308
7	3875	236.050474320826	309
7	3897	237.23641696761	310
7	3900	237.244054797375	311
7	3921	238.604953152719	312
7	3925	238.638714871515	313

