version 2
run General-4-20231008-09:07:25-18645
attr configname General
attr datetime 20231008-09:07:25
attr experiment General
attr inifile omnetpp.ini
attr iterationvars ""
attr iterationvarsf ""
attr measurement ""
attr network Network3
attr processid 18645
attr repetition 4
attr replication #4
attr resultdir results
attr runnumber 4
attr seedset 4
param Network3.node[*].transmissionTime "uniform(1s, 2s)"
param Network3.node[*].delayTime "uniform(0.01s, 0.2s)"
param Network3.node[*].processingTime exponential(0.01s)
param Network3.node[0].lossProbability 0
param Network3.node[1].lossProbability 0.0
param Network3.node[2].lossProbability 0.0
param Network3.node[3].lossProbability "0.0 / 2"
param Network3.node[4].lossProbability "0.0 / 2"
param Network3.node[6].lossProbability "0.0 * 2"
param Network3.node[7].lossProbability "0.0 * 2"
param Network3.node[5].lossProbability "0.0 * 3"

vector 0 Network3.node[0] txVector ETV
vector 1 Network3.node[1] txVector ETV
vector 2 Network3.node[3] txVector ETV
vector 3 Network3.node[2] txVector ETV
vector 4 Network3.node[4] txVector ETV
vector 5 Network3.node[6] txVector ETV
vector 6 Network3.node[7] txVector ETV
vector 7 Network3.node[5] rxVector ETV
0	1	0.193735669288	0
0	1	0.193735669288	1
0	26	2.094357123985	2
0	26	2.094357123985	3
0	51	4.077757797358	4
0	51	4.077757797358	5
0	76	5.143467336116	6
0	76	5.143467336116	7
0	101	6.544962778609	8
0	101	6.544962778609	9
0	126	8.474369433397	10
0	126	8.474369433397	11
0	151	10.046508204346	12
0	151	10.046508204346	13
0	176	11.209379926245	14
0	176	11.209379926245	15
0	201	12.719623557912	16
0	201	12.719623557912	17
0	226	13.856549376078	18
0	226	13.856549376078	19
0	251	14.980563997213	20
0	251	14.980563997213	21
0	276	16.642866432356	22
0	276	16.642866432356	23
0	301	18.274558675397	24
0	301	18.274558675397	25
0	326	19.590835181219	26
0	326	19.590835181219	27
0	351	20.91341016131	28
0	351	20.91341016131	29
0	376	22.226776787466	30
0	376	22.226776787466	31
0	401	24.160155956088	32
0	401	24.160155956088	33
0	426	25.204078464223	34
0	426	25.204078464223	35
0	451	26.575912175387	36
0	451	26.575912175387	37
0	476	28.313023050934	38
0	476	28.313023050934	39
0	501	29.35592157991	40
0	501	29.35592157991	41
0	526	30.988212119242	42
0	526	30.988212119242	43
0	551	32.009541959887	44
0	551	32.009541959887	45
0	576	33.890943555081	46
0	576	33.890943555081	47
0	601	35.014160187835	48
0	601	35.014160187835	49
0	626	36.286604704255	50
0	626	36.286604704255	51
0	651	37.801512936515	52
0	651	37.801512936515	53
0	676	39.459589651006	54
0	676	39.459589651006	55
0	701	41.317082886968	56
0	701	41.317082886968	57
0	726	42.837544564309	58
0	726	42.837544564309	59
0	751	44.410125729779	60
0	751	44.410125729779	61
0	776	45.877544089837	62
0	776	45.877544089837	63
0	801	47.380209574394	64
0	801	47.380209574394	65
0	826	48.89503337458	66
0	826	48.89503337458	67
0	851	50.082726091298	68
0	851	50.082726091298	69
0	876	51.098385585856	70
0	876	51.098385585856	71
0	901	52.365287883126	72
0	901	52.365287883126	73
0	926	53.414630038583	74
0	926	53.414630038583	75
0	951	54.714911308059	76
0	951	54.714911308059	77
0	976	56.419407665183	78
0	976	56.419407665183	79
0	1001	58.04003115549	80
0	1001	58.04003115549	81
0	1026	60.011077683105	82
0	1026	60.011077683105	83
0	1051	61.051435772016	84
0	1051	61.051435772016	85
0	1076	62.294815078995	86
0	1076	62.294815078995	87
0	1101	63.334624550923	88
0	1101	63.334624550923	89
0	1126	64.920312314213	90
0	1126	64.920312314213	91
0	1151	66.14124117411	92
0	1151	66.14124117411	93
0	1176	67.162414623576	94
0	1176	67.162414623576	95
0	1201	68.537979542662	96
0	1201	68.537979542662	97
0	1226	70.133250729798	98
0	1226	70.133250729798	99
0	1251	72.088352098747	100
0	1251	72.088352098747	101
0	1276	73.219024422497	102
0	1276	73.219024422497	103
0	1301	74.415070352762	104
0	1301	74.415070352762	105
0	1326	75.882056357491	106
0	1326	75.882056357491	107
0	1351	77.187462974957	108
0	1351	77.187462974957	109
0	1376	78.958638648188	110
0	1376	78.958638648188	111
0	1401	80.88713473283	112
0	1401	80.88713473283	113
0	1426	82.730535078247	114
0	1426	82.730535078247	115
0	1451	84.126617837616	116
0	1451	84.126617837616	117
0	1476	85.645818697673	118
0	1476	85.645818697673	119
0	1501	87.330808865989	120
0	1501	87.330808865989	121
0	1526	88.888951846317	122
0	1526	88.888951846317	123
0	1551	90.285188500222	124
0	1551	90.285188500222	125
0	1576	91.947082305711	126
0	1576	91.947082305711	127
0	1601	93.646276134217	128
0	1601	93.646276134217	129
0	1626	95.462631189182	130
0	1626	95.462631189182	131
0	1651	97.416419188642	132
0	1651	97.416419188642	133
0	1676	98.767255092423	134
0	1676	98.767255092423	135
0	1701	100.278879095252	136
0	1701	100.278879095252	137
0	1726	102.047890421852	138
0	1726	102.047890421852	139
0	1751	103.330057579243	140
0	1751	103.330057579243	141
0	1776	105.190243200316	142
0	1776	105.190243200316	143
0	1801	107.132828106555	144
0	1801	107.132828106555	145
0	1826	108.614863296888	146
0	1826	108.614863296888	147
0	1851	110.532910128274	148
0	1851	110.532910128274	149
0	1876	111.796698440016	150
0	1876	111.796698440016	151
0	1901	113.614780636887	152
0	1901	113.614780636887	153
0	1926	115.255572026513	154
0	1926	115.255572026513	155
0	1951	116.678261885803	156
0	1951	116.678261885803	157
0	1976	117.854898750234	158
0	1976	117.854898750234	159
0	2001	119.20411962798	160
0	2001	119.20411962798	161
0	2026	121.157113595318	162
0	2026	121.157113595318	163
0	2051	123.122628688963	164
0	2051	123.122628688963	165
0	2076	124.506926486885	166
0	2076	124.506926486885	167
0	2101	125.603073347976	168
0	2101	125.603073347976	169
0	2126	127.403165225789	170
0	2126	127.403165225789	171
0	2151	128.5852828486	172
0	2151	128.5852828486	173
0	2176	130.107740577927	174
0	2176	130.107740577927	175
0	2201	131.662757678807	176
0	2201	131.662757678807	177
0	2226	132.691667803714	178
0	2226	132.691667803714	179
0	2251	134.630552998196	180
0	2251	134.630552998196	181
0	2276	136.38035687796	182
0	2276	136.38035687796	183
0	2301	137.764529611135	184
0	2301	137.764529611135	185
0	2326	139.756982153433	186
0	2326	139.756982153433	187
0	2351	140.78075806835	188
0	2351	140.78075806835	189
0	2376	142.534330792877	190
0	2376	142.534330792877	191
0	2401	144.479197628715	192
0	2401	144.479197628715	193
0	2426	145.519132516731	194
0	2426	145.519132516731	195
0	2451	147.502893694362	196
0	2451	147.502893694362	197
0	2476	148.967974103207	198
0	2476	148.967974103207	199
0	2501	150.344016930938	200
0	2501	150.344016930938	201
0	2526	151.578413510148	202
0	2526	151.578413510148	203
0	2551	152.694799521391	204
0	2551	152.694799521391	205
0	2576	153.859324256575	206
0	2576	153.859324256575	207
0	2601	154.970414010726	208
0	2601	154.970414010726	209
0	2626	156.652475340676	210
0	2626	156.652475340676	211
0	2651	158.341199777939	212
0	2651	158.341199777939	213
0	2676	160.290957630298	214
0	2676	160.290957630298	215
0	2701	161.623043208302	216
0	2701	161.623043208302	217
0	2726	162.656721752522	218
0	2726	162.656721752522	219
0	2751	163.8217379138	220
0	2751	163.8217379138	221
0	2776	164.875880200103	222
0	2776	164.875880200103	223
0	2801	166.807978218341	224
0	2801	166.807978218341	225
0	2826	168.5516890254	226
0	2826	168.5516890254	227
0	2851	170.108143031517	228
0	2851	170.108143031517	229
0	2876	171.709362250207	230
0	2876	171.709362250207	231
0	2901	173.340356927983	232
0	2901	173.340356927983	233
0	2926	174.44694009485	234
0	2926	174.44694009485	235
0	2951	175.577205745888	236
0	2951	175.577205745888	237
0	2976	176.628952649574	238
0	2976	176.628952649574	239
0	3001	178.404888647528	240
0	3001	178.404888647528	241
0	3026	180.133204401856	242
0	3026	180.133204401856	243
0	3051	181.617724316813	244
0	3051	181.617724316813	245
0	3076	182.627706161853	246
0	3076	182.627706161853	247
0	3101	184.047891244445	248
0	3101	184.047891244445	249
0	3126	185.376146936709	250
0	3126	185.376146936709	251
0	3151	186.782408342617	252
0	3151	186.782408342617	253
0	3176	187.951492060827	254
0	3176	187.951492060827	255
0	3201	189.178699091462	256
0	3201	189.178699091462	257
0	3226	190.459111797776	258
0	3226	190.459111797776	259
0	3251	191.636004661595	260
0	3251	191.636004661595	261
0	3276	192.975496189588	262
0	3276	192.975496189588	263
0	3301	194.253593595618	264
0	3301	194.253593595618	265
0	3326	195.774295144634	266
0	3326	195.774295144634	267
0	3351	196.88880588502	268
0	3351	196.88880588502	269
0	3376	198.287642293995	270
0	3376	198.287642293995	271
0	3401	199.622113974219	272
0	3401	199.622113974219	273
0	3426	201.063387782698	274
0	3426	201.063387782698	275
0	3451	202.108574854129	276
0	3451	202.108574854129	277
0	3476	204.023987254745	278
0	3476	204.023987254745	279
0	3501	205.113017351052	280
0	3501	205.113017351052	281
0	3526	206.144867465284	282
0	3526	206.144867465284	283
0	3551	207.246556819335	284
0	3551	207.246556819335	285
0	3576	208.912300096278	286
0	3576	208.912300096278	287
0	3601	210.070111958229	288
0	3601	210.070111958229	289
0	3626	211.997315369233	290
0	3626	211.997315369233	291
0	3651	213.716394675582	292
0	3651	213.716394675582	293
0	3676	214.859133203666	294
0	3676	214.859133203666	295
0	3701	216.290132153699	296
0	3701	216.290132153699	297
0	3726	217.678481642775	298
0	3726	217.678481642775	299
0	3751	219.616620412249	300
0	3751	219.616620412249	301
0	3776	220.985546920368	302
0	3776	220.985546920368	303
0	3801	222.775805079763	304
0	3801	222.775805079763	305
0	3826	224.678181472386	306
0	3826	224.678181472386	307
0	3851	225.72167950325	308
0	3851	225.72167950325	309
0	3876	227.207356629114	310
0	3876	227.207356629114	311
0	3901	228.256260780537	312
0	3901	228.256260780537	313
0	3926	229.568485415227	314
0	3926	229.568485415227	315
0	3951	231.156322402799	316
0	3951	231.156322402799	317
0	3976	233.118961234962	318
0	3976	233.118961234962	319
0	4001	234.856985554717	320
0	4001	234.856985554717	321
0	4026	236.823163059692	322
0	4026	236.823163059692	323
0	4051	238.669084010565	324
0	4051	238.669084010565	325
0	4076	239.701045116329	326
0	4076	239.701045116329	327
1	4	0.205631491707	0
1	4	0.205631491707	1
1	4	0.205631491707	2
1	29	2.106146503787	3
1	29	2.106146503787	4
1	29	2.106146503787	5
1	54	4.089691960949	6
1	54	4.089691960949	7
1	54	4.089691960949	8
1	80	5.163959990717	9
1	80	5.163959990717	10
1	80	5.163959990717	11
1	104	6.557656503448	12
1	104	6.557656503448	13
1	104	6.557656503448	14
1	129	8.503041398634	15
1	129	8.503041398634	16
1	129	8.503041398634	17
1	154	10.065469988954	18
1	154	10.065469988954	19
1	154	10.065469988954	20
1	182	11.245514695576	21
1	182	11.245514695576	22
1	182	11.245514695576	23
1	205	12.730817141947	24
1	205	12.730817141947	25
1	205	12.730817141947	26
1	229	13.88080095588	27
1	229	13.88080095588	28
1	229	13.88080095588	29
1	254	14.999323730618	30
1	254	14.999323730618	31
1	254	14.999323730618	32
1	279	16.656263723301	33
1	279	16.656263723301	34
1	279	16.656263723301	35
1	307	18.298577038531	36
1	307	18.298577038531	37
1	307	18.298577038531	38
1	330	19.628213708774	39
1	330	19.628213708774	40
1	330	19.628213708774	41
1	361	20.96957947215	42
1	361	20.96957947215	43
1	361	20.96957947215	44
1	379	22.25003890959	45
1	379	22.25003890959	46
1	379	22.25003890959	47
1	405	24.173514104926	48
1	405	24.173514104926	49
1	405	24.173514104926	50
1	437	25.244917345918	51
1	437	25.244917345918	52
1	437	25.244917345918	53
1	457	26.603521067653	54
1	457	26.603521067653	55
1	457	26.603521067653	56
1	482	28.341268607294	57
1	482	28.341268607294	58
1	482	28.341268607294	59
1	505	29.373579192342	60
1	505	29.373579192342	61
1	505	29.373579192342	62
1	530	31.006980893429	63
1	530	31.006980893429	64
1	530	31.006980893429	65
1	558	32.051185777611	66
1	558	32.051185777611	67
1	558	32.051185777611	68
1	582	33.924744936469	69
1	582	33.924744936469	70
1	582	33.924744936469	71
1	605	35.034529200214	72
1	605	35.034529200214	73
1	605	35.034529200214	74
1	629	36.296879448161	75
1	629	36.296879448161	76
1	629	36.296879448161	77
1	655	37.818140180393	78
1	655	37.818140180393	79
1	655	37.818140180393	80
1	680	39.475266585626	81
1	680	39.475266585626	82
1	680	39.475266585626	83
1	707	41.340983237728	84
1	707	41.340983237728	85
1	707	41.340983237728	86
1	729	42.854527257473	87
1	729	42.854527257473	88
1	729	42.854527257473	89
1	755	44.425443956375	90
1	755	44.425443956375	91
1	755	44.425443956375	92
1	779	45.896220607438	93
1	779	45.896220607438	94
1	779	45.896220607438	95
1	805	47.398530382476	96
1	805	47.398530382476	97
1	805	47.398530382476	98
1	830	48.909079903019	99
1	830	48.909079903019	100
1	830	48.909079903019	101
1	854	50.095694468839	102
1	854	50.095694468839	103
1	854	50.095694468839	104
1	879	51.118653477795	105
1	879	51.118653477795	106
1	879	51.118653477795	107
1	907	52.416791915868	108
1	907	52.416791915868	109
1	907	52.416791915868	110
1	929	53.428631264633	111
1	929	53.428631264633	112
1	929	53.428631264633	113
1	954	54.725626643104	114
1	954	54.725626643104	115
1	954	54.725626643104	116
1	982	56.445859379949	117
1	982	56.445859379949	118
1	982	56.445859379949	119
1	1005	58.056424453242	120
1	1005	58.056424453242	121
1	1005	58.056424453242	122
1	1029	60.024223499951	123
1	1029	60.024223499951	124
1	1029	60.024223499951	125
1	1055	61.07634897188	126
1	1055	61.07634897188	127
1	1055	61.07634897188	128
1	1080	62.306752081737	129
1	1080	62.306752081737	130
1	1080	62.306752081737	131
1	1104	63.346002245899	132
1	1104	63.346002245899	133
1	1104	63.346002245899	134
1	1133	64.977055177061	135
1	1133	64.977055177061	136
1	1133	64.977055177061	137
1	1155	66.15960121566	138
1	1155	66.15960121566	139
1	1155	66.15960121566	140
1	1180	67.181811843466	141
1	1180	67.181811843466	142
1	1180	67.181811843466	143
1	1205	68.563705997125	144
1	1205	68.563705997125	145
1	1205	68.563705997125	146
1	1232	70.155278277973	147
1	1232	70.155278277973	148
1	1232	70.155278277973	149
1	1255	72.114672359778	150
1	1255	72.114672359778	151
1	1255	72.114672359778	152
1	1279	73.229257604303	153
1	1279	73.229257604303	154
1	1279	73.229257604303	155
1	1304	74.433992233166	156
1	1304	74.433992233166	157
1	1304	74.433992233166	158
1	1329	75.892557697944	159
1	1329	75.892557697944	160
1	1329	75.892557697944	161
1	1355	77.199451451389	162
1	1355	77.199451451389	163
1	1355	77.199451451389	164
1	1380	78.970221333237	165
1	1380	78.970221333237	166
1	1380	78.970221333237	167
1	1405	80.898609421962	168
1	1405	80.898609421962	169
1	1405	80.898609421962	170
1	1430	82.753900607639	171
1	1430	82.753900607639	172
1	1430	82.753900607639	173
1	1455	84.14463518939	174
1	1455	84.14463518939	175
1	1455	84.14463518939	176
1	1480	85.659540677013	177
1	1480	85.659540677013	178
1	1480	85.659540677013	179
1	1512	87.380580345066	180
1	1512	87.380580345066	181
1	1512	87.380580345066	182
1	1529	88.89918894346	183
1	1529	88.89918894346	184
1	1529	88.89918894346	185
1	1562	90.335384316581	186
1	1562	90.335384316581	187
1	1562	90.335384316581	188
1	1579	91.957835577924	189
1	1579	91.957835577924	190
1	1579	91.957835577924	191
1	1604	93.662891281183	192
1	1604	93.662891281183	193
1	1604	93.662891281183	194
1	1629	95.481206169182	195
1	1629	95.481206169182	196
1	1629	95.481206169182	197
1	1654	97.435486611463	198
1	1654	97.435486611463	199
1	1654	97.435486611463	200
1	1679	98.799137775439	201
1	1679	98.799137775439	202
1	1679	98.799137775439	203
1	1705	100.29817885421	204
1	1705	100.29817885421	205
1	1705	100.29817885421	206
1	1729	102.060524181949	207
1	1729	102.060524181949	208
1	1729	102.060524181949	209
1	1755	103.345448993197	210
1	1755	103.345448993197	211
1	1755	103.345448993197	212
1	1782	105.227102400962	213
1	1782	105.227102400962	214
1	1782	105.227102400962	215
1	1804	107.152099854922	216
1	1804	107.152099854922	217
1	1804	107.152099854922	218
1	1832	108.638762551491	219
1	1832	108.638762551491	220
1	1832	108.638762551491	221
1	1855	110.549470205956	222
1	1855	110.549470205956	223
1	1855	110.549470205956	224
1	1880	111.816506793989	225
1	1880	111.816506793989	226
1	1880	111.816506793989	227
1	1905	113.634660707741	228
1	1905	113.634660707741	229
1	1905	113.634660707741	230
1	1933	115.280266899088	231
1	1933	115.280266899088	232
1	1933	115.280266899088	233
1	1954	116.688389930464	234
1	1954	116.688389930464	235
1	1954	116.688389930464	236
1	1979	117.868556746054	237
1	1979	117.868556746054	238
1	1979	117.868556746054	239
1	2004	119.214462458114	240
1	2004	119.214462458114	241
1	2004	119.214462458114	242
1	2030	121.171200114516	243
1	2030	121.171200114516	244
1	2030	121.171200114516	245
1	2055	123.147527588016	246
1	2055	123.147527588016	247
1	2055	123.147527588016	248
1	2079	124.518427976739	249
1	2079	124.518427976739	250
1	2079	124.518427976739	251
1	2105	125.615456397578	252
1	2105	125.615456397578	253
1	2105	125.615456397578	254
1	2137	127.444198561	255
1	2137	127.444198561	256
1	2137	127.444198561	257
1	2155	128.605700243305	258
1	2155	128.605700243305	259
1	2155	128.605700243305	260
1	2186	130.152599714014	261
1	2186	130.152599714014	262
1	2186	130.152599714014	263
1	2207	131.694186819603	264
1	2207	131.694186819603	265
1	2207	131.694186819603	266
1	2230	132.71685118317	267
1	2230	132.71685118317	268
1	2230	132.71685118317	269
1	2254	134.643299250602	270
1	2254	134.643299250602	271
1	2254	134.643299250602	272
1	2279	136.393314165046	273
1	2279	136.393314165046	274
1	2279	136.393314165046	275
1	2305	137.781476483222	276
1	2305	137.781476483222	277
1	2305	137.781476483222	278
1	2333	139.779940401387	279
1	2333	139.779940401387	280
1	2333	139.779940401387	281
1	2355	140.795023835476	282
1	2355	140.795023835476	283
1	2355	140.795023835476	284
1	2380	142.547846744705	285
1	2380	142.547846744705	286
1	2380	142.547846744705	287
1	2405	144.4984480027	288
1	2405	144.4984480027	289
1	2405	144.4984480027	290
1	2429	145.529789704662	291
1	2429	145.529789704662	292
1	2429	145.529789704662	293
1	2455	147.520044335156	294
1	2455	147.520044335156	295
1	2455	147.520044335156	296
1	2479	148.979423558819	297
1	2479	148.979423558819	298
1	2479	148.979423558819	299
1	2504	150.366837523156	300
1	2504	150.366837523156	301
1	2504	150.366837523156	302
1	2529	151.589855547944	303
1	2529	151.589855547944	304
1	2529	151.589855547944	305
1	2554	152.708667589849	306
1	2554	152.708667589849	307
1	2554	152.708667589849	308
1	2580	153.877199777691	309
1	2580	153.877199777691	310
1	2580	153.877199777691	311
1	2612	155.014948045184	312
1	2612	155.014948045184	313
1	2612	155.014948045184	314
1	2629	156.664878546276	315
1	2629	156.664878546276	316
1	2629	156.664878546276	317
1	2654	158.356149960068	318
1	2654	158.356149960068	319
1	2654	158.356149960068	320
1	2679	160.305943843802	321
1	2679	160.305943843802	322
1	2679	160.305943843802	323
1	2705	161.653563739125	324
1	2705	161.653563739125	325
1	2705	161.653563739125	326
1	2732	162.677407977374	327
1	2732	162.677407977374	328
1	2732	162.677407977374	329
1	2765	163.897728595852	330
1	2765	163.897728595852	331
1	2765	163.897728595852	332
1	2779	164.886405108207	333
1	2779	164.886405108207	334
1	2779	164.886405108207	335
1	2805	166.821986226008	336
1	2805	166.821986226008	337
1	2805	166.821986226008	338
1	2830	168.584672668227	339
1	2830	168.584672668227	340
1	2830	168.584672668227	341
1	2854	170.130403389736	342
1	2854	170.130403389736	343
1	2854	170.130403389736	344
1	2879	171.720455493615	345
1	2879	171.720455493615	346
1	2879	171.720455493615	347
1	2904	173.357286000338	348
1	2904	173.357286000338	349
1	2904	173.357286000338	350
1	2929	174.457127978962	351
1	2929	174.457127978962	352
1	2929	174.457127978962	353
1	2955	175.59209211759	354
1	2955	175.59209211759	355
1	2955	175.59209211759	356
1	2987	176.670390292374	357
1	2987	176.670390292374	358
1	2987	176.670390292374	359
1	3007	178.430979544697	360
1	3007	178.430979544697	361
1	3007	178.430979544697	362
1	3029	180.14441680053	363
1	3029	180.14441680053	364
1	3029	180.14441680053	365
1	3054	181.630085997732	366
1	3054	181.630085997732	367
1	3054	181.630085997732	368
1	3079	182.640360297336	369
1	3079	182.640360297336	370
1	3079	182.640360297336	371
1	3107	184.069459638165	372
1	3107	184.069459638165	373
1	3107	184.069459638165	374
1	3129	185.390130640384	375
1	3129	185.390130640384	376
1	3129	185.390130640384	377
1	3154	186.794281413966	378
1	3154	186.794281413966	379
1	3154	186.794281413966	380
1	3179	187.966401193467	381
1	3179	187.966401193467	382
1	3179	187.966401193467	383
1	3205	189.193848803712	384
1	3205	189.193848803712	385
1	3205	189.193848803712	386
1	3232	190.484963872402	387
1	3232	190.484963872402	388
1	3232	190.484963872402	389
1	3257	191.667036196082	390
1	3257	191.667036196082	391
1	3257	191.667036196082	392
1	3280	192.986733770399	393
1	3280	192.986733770399	394
1	3280	192.986733770399	395
1	3304	194.265088176049	396
1	3304	194.265088176049	397
1	3304	194.265088176049	398
1	3329	195.785996047757	399
1	3329	195.785996047757	400
1	3329	195.785996047757	401
1	3354	196.899844272995	402
1	3354	196.899844272995	403
1	3354	196.899844272995	404
1	3380	198.304495193905	405
1	3380	198.304495193905	406
1	3380	198.304495193905	407
1	3405	199.638956485211	408
1	3405	199.638956485211	409
1	3405	199.638956485211	410
1	3429	201.077274700239	411
1	3429	201.077274700239	412
1	3429	201.077274700239	413
1	3455	202.139072673636	414
1	3455	202.139072673636	415
1	3455	202.139072673636	416
1	3479	204.043854679922	417
1	3479	204.043854679922	418
1	3479	204.043854679922	419
1	3505	205.136799131845	420
1	3505	205.136799131845	421
1	3505	205.136799131845	422
1	3529	206.165226489645	423
1	3529	206.165226489645	424
1	3529	206.165226489645	425
1	3557	207.267574222619	426
1	3557	207.267574222619	427
1	3557	207.267574222619	428
1	3580	208.932487860036	429
1	3580	208.932487860036	430
1	3580	208.932487860036	431
1	3605	210.089226455364	432
1	3605	210.089226455364	433
1	3605	210.089226455364	434
1	3630	212.018566832959	435
1	3630	212.018566832959	436
1	3630	212.018566832959	437
1	3655	213.727976013001	438
1	3655	213.727976013001	439
1	3655	213.727976013001	440
1	3680	214.883507697526	441
1	3680	214.883507697526	442
1	3680	214.883507697526	443
1	3704	216.306093589848	444
1	3704	216.306093589848	445
1	3704	216.306093589848	446
1	3729	217.69058745961	447
1	3729	217.69058745961	448
1	3729	217.69058745961	449
1	3754	219.627654602484	450
1	3754	219.627654602484	451
1	3754	219.627654602484	452
1	3779	220.99639653711	453
1	3779	220.99639653711	454
1	3779	220.99639653711	455
1	3804	222.786647712287	456
1	3804	222.786647712287	457
1	3804	222.786647712287	458
1	3829	224.690166912037	459
1	3829	224.690166912037	460
1	3829	224.690166912037	461
1	3854	225.735822359296	462
1	3854	225.735822359296	463
1	3854	225.735822359296	464
1	3882	227.246283855629	465
1	3882	227.246283855629	466
1	3882	227.246283855629	467
1	3904	228.271298303749	468
1	3904	228.271298303749	469
1	3904	228.271298303749	470
1	3937	229.615926342961	471
1	3937	229.615926342961	472
1	3937	229.615926342961	473
1	3955	231.175754749633	474
1	3955	231.175754749633	475
1	3955	231.175754749633	476
1	3980	233.145676266241	477
1	3980	233.145676266241	478
1	3980	233.145676266241	479
1	4005	234.867832843169	480
1	4005	234.867832843169	481
1	4005	234.867832843169	482
1	4030	236.843352576577	483
1	4030	236.843352576577	484
1	4030	236.843352576577	485
1	4055	238.689105811819	486
1	4055	238.689105811819	487
1	4055	238.689105811819	488
1	4080	239.729788822601	489
1	4080	239.729788822601	490
1	4080	239.729788822601	491
2	8	0.218066095948	0
2	8	0.218066095948	1
2	8	0.218066095948	2
2	34	2.119245423187	3
2	34	2.119245423187	4
2	34	2.119245423187	5
2	59	4.107197792378	6
2	59	4.107197792378	7
2	59	4.107197792378	8
2	90	5.182563750058	9
2	90	5.182563750058	10
2	90	5.182563750058	11
2	108	6.569670879356	12
2	108	6.569670879356	13
2	108	6.569670879356	14
2	134	8.513874989073	15
2	134	8.513874989073	16
2	134	8.513874989073	17
2	158	10.075967503682	18
2	158	10.075967503682	19
2	158	10.075967503682	20
2	190	11.257467644837	21
2	190	11.257467644837	22
2	190	11.257467644837	23
2	211	12.741685628037	24
2	211	12.741685628037	25
2	211	12.741685628037	26
2	237	13.917637803692	27
2	237	13.917637803692	28
2	237	13.917637803692	29
2	261	15.016978814965	30
2	261	15.016978814965	31
2	261	15.016978814965	32
2	286	16.673515710743	33
2	286	16.673515710743	34
2	286	16.673515710743	35
2	319	18.324029109936	36
2	319	18.324029109936	37
2	319	18.324029109936	38
2	340	19.651223270557	39
2	340	19.651223270557	40
2	340	19.651223270557	41
2	369	20.987296651377	42
2	369	20.987296651377	43
2	369	20.987296651377	44
2	384	22.260915211265	45
2	384	22.260915211265	46
2	384	22.260915211265	47
2	411	24.184829186667	48
2	411	24.184829186667	49
2	411	24.184829186667	50
2	441	25.251367906781	51
2	441	25.251367906781	52
2	441	25.251367906781	53
2	466	26.622130386364	54
2	466	26.622130386364	55
2	466	26.622130386364	56
2	490	28.354705346304	57
2	490	28.354705346304	58
2	490	28.354705346304	59
2	515	29.392596862848	60
2	515	29.392596862848	61
2	515	29.392596862848	62
2	537	31.017695525139	63
2	537	31.017695525139	64
2	537	31.017695525139	65
2	566	32.066774650304	66
2	566	32.066774650304	67
2	566	32.066774650304	68
2	586	33.93594806398	69
2	586	33.93594806398	70
2	586	33.93594806398	71
2	611	35.049641985791	72
2	611	35.049641985791	73
2	611	35.049641985791	74
2	634	36.311503570066	75
2	634	36.311503570066	76
2	634	36.311503570066	77
2	661	37.841402307183	78
2	661	37.841402307183	79
2	661	37.841402307183	80
2	687	39.488714251542	81
2	687	39.488714251542	82
2	687	39.488714251542	83
2	719	41.391445566656	84
2	719	41.391445566656	85
2	719	41.391445566656	86
2	734	42.866385949863	87
2	734	42.866385949863	88
2	734	42.866385949863	89
2	761	44.439147218745	90
2	761	44.439147218745	91
2	761	44.439147218745	92
2	786	45.914389033511	93
2	786	45.914389033511	94
2	786	45.914389033511	95
2	812	47.409671976077	96
2	812	47.409671976077	97
2	812	47.409671976077	98
2	837	48.929646686616	99
2	837	48.929646686616	100
2	837	48.929646686616	101
2	859	50.112202063147	102
2	859	50.112202063147	103
2	859	50.112202063147	104
2	885	51.129761915981	105
2	885	51.129761915981	106
2	885	51.129761915981	107
2	916	52.451113768724	108
2	916	52.451113768724	109
2	916	52.451113768724	110
2	936	53.447962797866	111
2	936	53.447962797866	112
2	936	53.447962797866	113
2	958	54.757294771779	114
2	958	54.757294771779	115
2	958	54.757294771779	116
2	987	56.473193077158	117
2	987	56.473193077158	118
2	987	56.473193077158	119
2	1015	58.090369073726	120
2	1015	58.090369073726	121
2	1015	58.090369073726	122
2	1037	60.049021436823	123
2	1037	60.049021436823	124
2	1037	60.049021436823	125
2	1061	61.08706497705	126
2	1061	61.08706497705	127
2	1061	61.08706497705	128
2	1091	62.335377927214	129
2	1091	62.335377927214	130
2	1091	62.335377927214	131
2	1109	63.356805754437	132
2	1109	63.356805754437	133
2	1109	63.356805754437	134
2	1141	64.99935907179	135
2	1141	64.99935907179	136
2	1141	64.99935907179	137
2	1166	66.188265272627	138
2	1166	66.188265272627	139
2	1166	66.188265272627	140
2	1186	67.216097273237	141
2	1186	67.216097273237	142
2	1186	67.216097273237	143
2	1211	68.5745617091	144
2	1211	68.5745617091	145
2	1211	68.5745617091	146
2	1241	70.171663750574	147
2	1241	70.171663750574	148
2	1241	70.171663750574	149
2	1261	72.148499763732	150
2	1261	72.148499763732	151
2	1261	72.148499763732	152
2	1284	73.240677467343	153
2	1284	73.240677467343	154
2	1284	73.240677467343	155
2	1311	74.450987283028	156
2	1311	74.450987283028	157
2	1311	74.450987283028	158
2	1333	75.903966192092	159
2	1333	75.903966192092	160
2	1333	75.903966192092	161
2	1362	77.218605424631	162
2	1362	77.218605424631	163
2	1362	77.218605424631	164
2	1386	78.984024787434	165
2	1386	78.984024787434	166
2	1386	78.984024787434	167
2	1412	80.911411833616	168
2	1412	80.911411833616	169
2	1412	80.911411833616	170
2	1436	82.764857266989	171
2	1436	82.764857266989	172
2	1436	82.764857266989	173
2	1461	84.155410803068	174
2	1461	84.155410803068	175
2	1461	84.155410803068	176
2	1487	85.67398950875	177
2	1487	85.67398950875	178
2	1487	85.67398950875	179
2	1519	87.39170138972	180
2	1519	87.39170138972	181
2	1519	87.39170138972	182
2	1536	88.922206877294	183
2	1536	88.922206877294	184
2	1536	88.922206877294	185
2	1566	90.344765962452	186
2	1566	90.344765962452	187
2	1566	90.344765962452	188
2	1583	91.971423252118	189
2	1583	91.971423252118	190
2	1583	91.971423252118	191
2	1610	93.676558664834	192
2	1610	93.676558664834	193
2	1610	93.676558664834	194
2	1634	95.493363052433	195
2	1634	95.493363052433	196
2	1634	95.493363052433	197
2	1660	97.448487377869	198
2	1660	97.448487377869	199
2	1660	97.448487377869	200
2	1687	98.813917746985	201
2	1687	98.813917746985	202
2	1687	98.813917746985	203
2	1712	100.314476751135	204
2	1712	100.314476751135	205
2	1712	100.314476751135	206
2	1734	102.071479648088	207
2	1734	102.071479648088	208
2	1734	102.071479648088	209
2	1761	103.364314902797	210
2	1761	103.364314902797	211
2	1761	103.364314902797	212
2	1786	105.243394449427	213
2	1786	105.243394449427	214
2	1786	105.243394449427	215
2	1811	107.171450160276	216
2	1811	107.171450160276	217
2	1811	107.171450160276	218
2	1840	108.661098227937	219
2	1840	108.661098227937	220
2	1840	108.661098227937	221
2	1862	110.565482624626	222
2	1862	110.565482624626	223
2	1862	110.565482624626	224
2	1886	111.827845586997	225
2	1886	111.827845586997	226
2	1886	111.827845586997	227
2	1912	113.651347587607	228
2	1912	113.651347587607	229
2	1912	113.651347587607	230
2	1941	115.292929254058	231
2	1941	115.292929254058	232
2	1941	115.292929254058	233
2	1960	116.702581581535	234
2	1960	116.702581581535	235
2	1960	116.702581581535	236
2	1983	117.879880493919	237
2	1983	117.879880493919	238
2	1983	117.879880493919	239
2	2010	119.227840088087	240
2	2010	119.227840088087	241
2	2010	119.227840088087	242
2	2037	121.185381972277	243
2	2037	121.185381972277	244
2	2037	121.185381972277	245
2	2065	123.165739961693	246
2	2065	123.165739961693	247
2	2065	123.165739961693	248
2	2084	124.538470861561	249
2	2084	124.538470861561	250
2	2084	124.538470861561	251
2	2111	125.627381630287	252
2	2111	125.627381630287	253
2	2111	125.627381630287	254
2	2144	127.461981059383	255
2	2144	127.461981059383	256
2	2144	127.461981059383	257
2	2161	128.627676678809	258
2	2161	128.627676678809	259
2	2161	128.627676678809	260
2	2190	130.168322111859	261
2	2190	130.168322111859	262
2	2190	130.168322111859	263
2	2211	131.714052055636	264
2	2211	131.714052055636	265
2	2211	131.714052055636	266
2	2240	132.737778277486	267
2	2240	132.737778277486	268
2	2240	132.737778277486	269
2	2262	134.661006070333	270
2	2262	134.661006070333	271
2	2262	134.661006070333	272
2	2290	136.419232153143	273
2	2290	136.419232153143	274
2	2290	136.419232153143	275
2	2319	137.830545836004	276
2	2319	137.830545836004	277
2	2319	137.830545836004	278
2	2340	139.79794984269	279
2	2340	139.79794984269	280
2	2340	139.79794984269	281
2	2361	140.805779614812	282
2	2361	140.805779614812	283
2	2361	140.805779614812	284
2	2390	142.576561302032	285
2	2390	142.576561302032	286
2	2390	142.576561302032	287
2	2411	144.511791656387	288
2	2411	144.511791656387	289
2	2411	144.511791656387	290
2	2436	145.551258437115	291
2	2436	145.551258437115	292
2	2436	145.551258437115	293
2	2462	147.530687227555	294
2	2462	147.530687227555	295
2	2462	147.530687227555	296
2	2486	148.990531077195	297
2	2486	148.990531077195	298
2	2486	148.990531077195	299
2	2510	150.384473242633	300
2	2510	150.384473242633	301
2	2510	150.384473242633	302
2	2536	151.618659809455	303
2	2536	151.618659809455	304
2	2536	151.618659809455	305
2	2565	152.732018044042	306
2	2565	152.732018044042	307
2	2565	152.732018044042	308
2	2591	153.898521577782	309
2	2591	153.898521577782	310
2	2591	153.898521577782	311
2	2619	155.042422374574	312
2	2619	155.042422374574	313
2	2619	155.042422374574	314
2	2637	156.686391342409	315
2	2637	156.686391342409	316
2	2637	156.686391342409	317
2	2660	158.373718839519	318
2	2660	158.373718839519	319
2	2660	158.373718839519	320
2	2683	160.319514683196	321
2	2683	160.319514683196	322
2	2683	160.319514683196	323
2	2716	161.674374247738	324
2	2716	161.674374247738	325
2	2716	161.674374247738	326
2	2736	162.699107113149	327
2	2736	162.699107113149	328
2	2736	162.699107113149	329
2	2766	163.897938047392	330
2	2766	163.897938047392	331
2	2766	163.897938047392	332
2	2784	164.896864692079	333
2	2784	164.896864692079	334
2	2784	164.896864692079	335
2	2812	166.833641601211	336
2	2812	166.833641601211	337
2	2812	166.833641601211	338
2	2840	168.60830872431	339
2	2840	168.60830872431	340
2	2840	168.60830872431	341
2	2859	170.147470332583	342
2	2859	170.147470332583	343
2	2859	170.147470332583	344
2	2887	171.736204828529	345
2	2887	171.736204828529	346
2	2887	171.736204828529	347
2	2908	173.376059887153	348
2	2908	173.376059887153	349
2	2908	173.376059887153	350
2	2934	174.477193240213	351
2	2934	174.477193240213	352
2	2934	174.477193240213	353
2	2961	175.610767429767	354
2	2961	175.610767429767	355
2	2961	175.610767429767	356
2	2994	176.709587628751	357
2	2994	176.709587628751	358
2	2994	176.709587628751	359
2	3015	178.450989555304	360
2	3015	178.450989555304	361
2	3015	178.450989555304	362
2	3036	180.158780058288	363
2	3036	180.158780058288	364
2	3036	180.158780058288	365
2	3060	181.641144765182	366
2	3060	181.641144765182	367
2	3060	181.641144765182	368
2	3084	182.653109267453	369
2	3084	182.653109267453	370
2	3084	182.653109267453	371
2	3115	184.085971784175	372
2	3115	184.085971784175	373
2	3115	184.085971784175	374
2	3140	185.414580699306	375
2	3140	185.414580699306	376
2	3140	185.414580699306	377
2	3162	186.81351567442	378
2	3162	186.81351567442	379
2	3162	186.81351567442	380
2	3186	187.9768557269	381
2	3186	187.9768557269	382
2	3186	187.9768557269	383
2	3211	189.20772312559	384
2	3211	189.20772312559	385
2	3211	189.20772312559	386
2	3237	190.496307746536	387
2	3237	190.496307746536	388
2	3237	190.496307746536	389
2	3262	191.681656386225	390
2	3262	191.681656386225	391
2	3262	191.681656386225	392
2	3286	193.009059035494	393
2	3286	193.009059035494	394
2	3286	193.009059035494	395
2	3312	194.283691681873	396
2	3312	194.283691681873	397
2	3312	194.283691681873	398
2	3334	195.801493251165	399
2	3334	195.801493251165	400
2	3334	195.801493251165	401
2	3366	196.944030238123	402
2	3366	196.944030238123	403
2	3366	196.944030238123	404
2	3387	198.321697526991	405
2	3387	198.321697526991	406
2	3387	198.321697526991	407
2	3412	199.671090864946	408
2	3412	199.671090864946	409
2	3412	199.671090864946	410
2	3434	201.087869843637	411
2	3434	201.087869843637	412
2	3434	201.087869843637	413
2	3462	202.153145279575	414
2	3462	202.153145279575	415
2	3462	202.153145279575	416
2	3483	204.055747384951	417
2	3483	204.055747384951	418
2	3483	204.055747384951	419
2	3519	205.176374139466	420
2	3519	205.176374139466	421
2	3519	205.176374139466	422
2	3537	206.183244278203	423
2	3537	206.183244278203	424
2	3537	206.183244278203	425
2	3562	207.285840613872	426
2	3562	207.285840613872	427
2	3562	207.285840613872	428
2	3591	208.957846525977	429
2	3591	208.957846525977	430
2	3591	208.957846525977	431
2	3611	210.103359142811	432
2	3611	210.103359142811	433
2	3611	210.103359142811	434
2	3640	212.040247025761	435
2	3640	212.040247025761	436
2	3640	212.040247025761	437
2	3666	213.761691983019	438
2	3666	213.761691983019	439
2	3666	213.761691983019	440
2	3687	214.896239248373	441
2	3687	214.896239248373	442
2	3687	214.896239248373	443
2	3709	216.316458798437	444
2	3709	216.316458798437	445
2	3709	216.316458798437	446
2	3733	217.702312468032	447
2	3733	217.702312468032	448
2	3733	217.702312468032	449
2	3759	219.643891794513	450
2	3759	219.643891794513	451
2	3759	219.643891794513	452
2	3790	221.028366977677	453
2	3790	221.028366977677	454
2	3790	221.028366977677	455
2	3810	222.798461365046	456
2	3810	222.798461365046	457
2	3810	222.798461365046	458
2	3835	224.706301296681	459
2	3835	224.706301296681	460
2	3835	224.706301296681	461
2	3861	225.747528842382	462
2	3861	225.747528842382	463
2	3861	225.747528842382	464
2	3887	227.258080589056	465
2	3887	227.258080589056	466
2	3887	227.258080589056	467
2	3910	228.284212563437	468
2	3910	228.284212563437	469
2	3910	228.284212563437	470
2	3941	229.623375627553	471
2	3941	229.623375627553	472
2	3941	229.623375627553	473
2	3961	231.195223682375	474
2	3961	231.195223682375	475
2	3961	231.195223682375	476
2	3991	233.161990670659	477
2	3991	233.161990670659	478
2	3991	233.161990670659	479
2	4016	234.893068496802	480
2	4016	234.893068496802	481
2	4016	234.893068496802	482
2	4036	236.858212972086	483
2	4036	236.858212972086	484
2	4036	236.858212972086	485
2	4061	238.701175859729	486
2	4061	238.701175859729	487
2	4061	238.701175859729	488
2	4087	239.74102374844	489
2	4087	239.74102374844	490
2	4087	239.74102374844	491
3	9	0.223088800394	0
3	9	0.223088800394	1
3	30	2.113453601012	2
3	30	2.113453601012	3
3	60	4.107848206349	4
3	60	4.107848206349	5
3	79	5.15852405876	6
3	79	5.15852405876	7
3	109	6.571617832717	8
3	109	6.571617832717	9
3	130	8.504103276223	10
3	130	8.504103276223	11
3	162	10.086536711831	12
3	162	10.086536711831	13
3	179	11.230373885302	14
3	179	11.230373885302	15
3	204	12.730373846164	16
3	204	12.730373846164	17
3	230	13.882368737627	18
3	230	13.882368737627	19
3	255	15.003541815867	20
3	255	15.003541815867	21
3	280	16.658102530236	22
3	280	16.658102530236	23
3	304	18.287833054258	24
3	304	18.287833054258	25
3	329	19.626090886596	26
3	329	19.626090886596	27
3	354	20.944955466899	28
3	354	20.944955466899	29
3	380	22.254196252852	30
3	380	22.254196252852	31
3	404	24.173309422737	32
3	404	24.173309422737	33
3	429	25.214667538098	34
3	429	25.214667538098	35
3	454	26.590839582366	36
3	454	26.590839582366	37
3	479	28.328195014005	38
3	479	28.328195014005	39
3	504	29.369409258245	40
3	504	29.369409258245	41
3	529	31.00410642619	42
3	529	31.00410642619	43
3	554	32.022299874767	44
3	554	32.022299874767	45
3	579	33.912246669495	46
3	579	33.912246669495	47
3	604	35.026932828409	48
3	604	35.026932828409	49
3	630	36.304877974669	50
3	630	36.304877974669	51
3	654	37.816585387625	52
3	654	37.816585387625	53
3	679	39.47039924398	54
3	679	39.47039924398	55
3	704	41.328460685242	56
3	704	41.328460685242	57
3	730	42.863462609161	58
3	730	42.863462609161	59
3	754	44.423312539448	60
3	754	44.423312539448	61
3	780	45.897385437927	62
3	780	45.897385437927	63
3	804	47.391478195739	64
3	804	47.391478195739	65
3	829	48.906322296428	66
3	829	48.906322296428	67
3	860	50.112482193178	68
3	860	50.112482193178	69
3	880	51.12066641798	70
3	880	51.12066641798	71
3	904	52.400621312462	72
3	904	52.400621312462	73
3	930	53.431376667547	74
3	930	53.431376667547	75
3	959	54.760515130521	76
3	959	54.760515130521	77
3	979	56.432774382533	78
3	979	56.432774382533	79
3	1004	58.0504412746	80
3	1004	58.0504412746	81
3	1030	60.029859222809	82
3	1030	60.029859222809	83
3	1054	61.067390173052	84
3	1054	61.067390173052	85
3	1079	62.305260680293	86
3	1079	62.305260680293	87
3	1105	63.354146148596	88
3	1105	63.354146148596	89
3	1129	64.955525972834	90
3	1129	64.955525972834	91
3	1154	66.158216585315	92
3	1154	66.158216585315	93
3	1179	67.173707291821	94
3	1179	67.173707291821	95
3	1204	68.562707231617	96
3	1204	68.562707231617	97
3	1229	70.14523438687	98
3	1229	70.14523438687	99
3	1254	72.108945738749	100
3	1254	72.108945738749	101
3	1280	73.239118565483	102
3	1280	73.239118565483	103
3	1305	74.439242951105	104
3	1305	74.439242951105	105
3	1334	75.90406294263	106
3	1334	75.90406294263	107
3	1354	77.199415994612	108
3	1354	77.199415994612	109
3	1379	78.969137955213	110
3	1379	78.969137955213	111
3	1404	80.897375072221	112
3	1404	80.897375072221	113
3	1429	82.745019883411	114
3	1429	82.745019883411	115
3	1454	84.137867294592	116
3	1454	84.137867294592	117
3	1479	85.656886843413	118
3	1479	85.656886843413	119
3	1504	87.342827422729	120
3	1504	87.342827422729	121
3	1530	88.901907850642	122
3	1530	88.901907850642	123
3	1554	90.306548660912	124
3	1554	90.306548660912	125
3	1598	92.016098815331	126
3	1598	92.016098815331	127
3	1605	93.672570925235	128
3	1605	93.672570925235	129
3	1630	95.485458808588	130
3	1630	95.485458808588	131
3	1655	97.444271882594	132
3	1655	97.444271882594	133
3	1680	98.799219179573	134
3	1680	98.799219179573	135
3	1704	100.289150580714	136
3	1704	100.289150580714	137
3	1730	102.067627881385	138
3	1730	102.067627881385	139
3	1754	103.343144733644	140
3	1754	103.343144733644	141
3	1779	105.212741545202	142
3	1779	105.212741545202	143
3	1805	107.155350508837	144
3	1805	107.155350508837	145
3	1829	108.62496940415	146
3	1829	108.62496940415	147
3	1854	110.548304977437	148
3	1854	110.548304977437	149
3	1879	111.813961664575	150
3	1879	111.813961664575	151
3	1904	113.632574218893	152
3	1904	113.632574218893	153
3	1929	115.26589958169	154
3	1929	115.26589958169	155
3	1955	116.695751509005	156
3	1955	116.695751509005	157
3	1996	117.912564233175	158
3	1996	117.912564233175	159
3	2005	119.219432636953	160
3	2005	119.219432636953	161
3	2029	121.16843117372	162
3	2029	121.16843117372	163
3	2054	123.138615290312	164
3	2054	123.138615290312	165
3	2088	124.543967767919	166
3	2088	124.543967767919	167
3	2104	125.615337149438	168
3	2104	125.615337149438	169
3	2129	127.41616943058	170
3	2129	127.41616943058	171
3	2154	128.605349896465	172
3	2154	128.605349896465	173
3	2179	130.126081098688	174
3	2179	130.126081098688	175
3	2204	131.678799344646	176
3	2204	131.678799344646	177
3	2229	132.707100991436	178
3	2229	132.707100991436	179
3	2255	134.649735743831	180
3	2255	134.649735743831	181
3	2280	136.402763094162	182
3	2280	136.402763094162	183
3	2304	137.777891484342	184
3	2304	137.777891484342	185
3	2329	139.767636279138	186
3	2329	139.767636279138	187
3	2354	140.793633724666	188
3	2354	140.793633724666	189
3	2379	142.546337207745	190
3	2379	142.546337207745	191
3	2404	144.490444215311	192
3	2404	144.490444215311	193
3	2430	145.531370281771	194
3	2430	145.531370281771	195
3	2454	147.51299039614	196
3	2454	147.51299039614	197
3	2480	148.980273919086	198
3	2480	148.980273919086	199
3	2505	150.376505085718	200
3	2505	150.376505085718	201
3	2530	151.598942781605	202
3	2530	151.598942781605	203
3	2555	152.711053928856	204
3	2555	152.711053928856	205
3	2579	153.874038048474	206
3	2579	153.874038048474	207
3	2604	154.986113014261	208
3	2604	154.986113014261	209
3	2641	156.69810032926	210
3	2641	156.69810032926	211
3	2655	158.364931698312	212
3	2655	158.364931698312	213
3	2685	160.324214371379	214
3	2685	160.324214371379	215
3	2704	161.644392459769	216
3	2704	161.644392459769	217
3	2729	162.667336940869	218
3	2729	162.667336940869	219
3	2754	163.83339397104	220
3	2754	163.83339397104	221
3	2780	164.888293916139	222
3	2780	164.888293916139	223
3	2804	166.818741955558	224
3	2804	166.818741955558	225
3	2829	168.576831804482	226
3	2829	168.576831804482	227
3	2855	170.13793059496	228
3	2855	170.13793059496	229
3	2880	171.721514364685	230
3	2880	171.721514364685	231
3	2909	173.382410349371	232
3	2909	173.382410349371	233
3	2942	174.488761867813	234
3	2942	174.488761867813	235
3	2954	175.589170659683	236
3	2954	175.589170659683	237
3	2979	176.639352428505	238
3	2979	176.639352428505	239
3	3004	178.415256810534	240
3	3004	178.415256810534	241
3	3030	180.146186141142	242
3	3030	180.146186141142	243
3	3055	181.638645032476	244
3	3055	181.638645032476	245
3	3080	182.645411311779	246
3	3080	182.645411311779	247
3	3104	184.058738354484	248
3	3104	184.058738354484	249
3	3130	185.394188671935	250
3	3130	185.394188671935	251
3	3155	186.802740616536	252
3	3155	186.802740616536	253
3	3180	187.966600419913	254
3	3180	187.966600419913	255
3	3204	189.189657741675	256
3	3204	189.189657741675	257
3	3229	190.471361479172	258
3	3229	190.471361479172	259
3	3254	191.651966511325	260
3	3254	191.651966511325	261
3	3279	192.985773923898	262
3	3279	192.985773923898	263
3	3305	194.273080970517	264
3	3305	194.273080970517	265
3	3330	195.791660956644	266
3	3330	195.791660956644	267
3	3355	196.900657901916	268
3	3355	196.900657901916	269
3	3379	198.302247639724	270
3	3379	198.302247639724	271
3	3404	199.636271411193	272
3	3404	199.636271411193	273
3	3430	201.085126659257	274
3	3430	201.085126659257	275
3	3454	202.138982686721	276
3	3454	202.138982686721	277
3	3484	204.056519124746	278
3	3484	204.056519124746	279
3	3504	205.128938027213	280
3	3504	205.128938027213	281
3	3530	206.171124904002	282
3	3530	206.171124904002	283
3	3554	207.256851053873	284
3	3554	207.256851053873	285
3	3579	208.926976861112	286
3	3579	208.926976861112	287
3	3604	210.08227366345	288
3	3604	210.08227366345	289
3	3629	212.012345210697	290
3	3629	212.012345210697	291
3	3654	213.727918615555	292
3	3654	213.727918615555	293
3	3679	214.876003526393	294
3	3679	214.876003526393	295
3	3705	216.309025084958	296
3	3705	216.309025084958	297
3	3734	217.703178385672	298
3	3734	217.703178385672	299
3	3758	219.640857564552	300
3	3758	219.640857564552	301
3	3780	220.997847589219	302
3	3780	220.997847589219	303
3	3805	222.791624891991	304
3	3805	222.791624891991	305
3	3830	224.696343815862	306
3	3830	224.696343815862	307
3	3855	225.736880329835	308
3	3855	225.736880329835	309
3	3879	227.219653326433	310
3	3879	227.219653326433	311
3	3905	228.280825829397	312
3	3905	228.280825829397	313
3	3929	229.586537140859	314
3	3929	229.586537140859	315
3	3954	231.170714532292	316
3	3954	231.170714532292	317
3	3979	233.138105263306	318
3	3979	233.138105263306	319
3	4004	234.867671274217	320
3	4004	234.867671274217	321
3	4029	236.837734078811	322
3	4029	236.837734078811	323
3	4054	238.680099827519	324
3	4054	238.680099827519	325
3	4079	239.722293517815	326
3	4079	239.722293517815	327
4	10	0.227595799025	0
4	10	0.227595799025	1
4	10	0.227595799025	2
4	37	2.125627552128	3
4	37	2.125627552128	4
4	37	2.125627552128	5
4	58	4.104941947782	6
4	58	4.104941947782	7
4	58	4.104941947782	8
4	83	5.171047626596	9
4	83	5.171047626596	10
4	83	5.171047626596	11
4	110	6.574543954702	12
4	110	6.574543954702	13
4	110	6.574543954702	14
4	140	8.524113183601	15
4	140	8.524113183601	16
4	140	8.524113183601	17
4	164	10.090069744201	18
4	164	10.090069744201	19
4	164	10.090069744201	20
4	183	11.246941265296	21
4	183	11.246941265296	22
4	183	11.246941265296	23
4	222	12.779304025273	24
4	222	12.779304025273	25
4	222	12.779304025273	26
4	236	13.915751957195	27
4	236	13.915751957195	28
4	236	13.915751957195	29
4	262	15.020038118289	30
4	262	15.020038118289	31
4	262	15.020038118289	32
4	287	16.682915191431	33
4	287	16.682915191431	34
4	287	16.682915191431	35
4	308	18.298762685088	36
4	308	18.298762685088	37
4	308	18.298762685088	38
4	336	19.639383047864	39
4	336	19.639383047864	40
4	336	19.639383047864	41
4	357	20.9586981119	42
4	357	20.9586981119	43
4	357	20.9586981119	44
4	390	22.273792392202	45
4	390	22.273792392202	46
4	390	22.273792392202	47
4	412	24.188305753143	48
4	412	24.188305753143	49
4	412	24.188305753143	50
4	432	25.225617156474	51
4	432	25.225617156474	52
4	432	25.225617156474	53
4	458	26.606584755826	54
4	458	26.606584755826	55
4	458	26.606584755826	56
4	483	28.342539956766	57
4	483	28.342539956766	58
4	483	28.342539956766	59
4	508	29.381245244491	60
4	508	29.381245244491	61
4	508	29.381245244491	62
4	533	31.015702194996	63
4	533	31.015702194996	64
4	533	31.015702194996	65
4	557	32.050256157697	66
4	557	32.050256157697	67
4	557	32.050256157697	68
4	592	33.954844477011	69
4	592	33.954844477011	70
4	592	33.954844477011	71
4	612	35.057179963383	72
4	612	35.057179963383	73
4	612	35.057179963383	74
4	641	36.323986519125	75
4	641	36.323986519125	76
4	641	36.323986519125	77
4	662	37.850500586895	78
4	662	37.850500586895	79
4	662	37.850500586895	80
4	683	39.481209947711	81
4	683	39.481209947711	82
4	683	39.481209947711	83
4	708	41.344993948291	84
4	708	41.344993948291	85
4	708	41.344993948291	86
4	735	42.870521901454	87
4	735	42.870521901454	88
4	735	42.870521901454	89
4	762	44.4485407613	90
4	762	44.4485407613	91
4	762	44.4485407613	92
4	787	45.917675734824	93
4	787	45.917675734824	94
4	787	45.917675734824	95
4	808	47.407920376894	96
4	808	47.407920376894	97
4	808	47.407920376894	98
4	836	48.92697893927	99
4	836	48.92697893927	100
4	836	48.92697893927	101
4	858	50.106631156324	102
4	858	50.106631156324	103
4	858	50.106631156324	104
4	884	51.128993460877	105
4	884	51.128993460877	106
4	884	51.128993460877	107
4	911	52.432465986521	108
4	911	52.432465986521	109
4	911	52.432465986521	110
4	937	53.454704985514	111
4	937	53.454704985514	112
4	937	53.454704985514	113
4	963	54.767355823577	114
4	963	54.767355823577	115
4	963	54.767355823577	116
4	986	56.469599830046	117
4	986	56.469599830046	118
4	986	56.469599830046	119
4	1011	58.073138786433	120
4	1011	58.073138786433	121
4	1011	58.073138786433	122
4	1036	60.046027115685	123
4	1036	60.046027115685	124
4	1036	60.046027115685	125
4	1066	61.104516374647	126
4	1066	61.104516374647	127
4	1066	61.104516374647	128
4	1086	62.31769849809	129
4	1086	62.31769849809	130
4	1086	62.31769849809	131
4	1110	63.361708139312	132
4	1110	63.361708139312	133
4	1110	63.361708139312	134
4	1132	64.972075530775	135
4	1132	64.972075530775	136
4	1132	64.972075530775	137
4	1161	66.176494317367	138
4	1161	66.176494317367	139
4	1161	66.176494317367	140
4	1187	67.221615711562	141
4	1187	67.221615711562	142
4	1187	67.221615711562	143
4	1212	68.57624563698	144
4	1212	68.57624563698	145
4	1212	68.57624563698	146
4	1233	70.155895758849	147
4	1233	70.155895758849	148
4	1233	70.155895758849	149
4	1267	72.165537983269	150
4	1267	72.165537983269	151
4	1267	72.165537983269	152
4	1285	73.248773010482	153
4	1285	73.248773010482	154
4	1285	73.248773010482	155
4	1312	74.455533194788	156
4	1312	74.455533194788	157
4	1312	74.455533194788	158
4	1345	75.938332228623	159
4	1345	75.938332228623	160
4	1345	75.938332228623	161
4	1361	77.218382699161	162
4	1361	77.218382699161	163
4	1361	77.218382699161	164
4	1387	78.991790284634	165
4	1387	78.991790284634	166
4	1387	78.991790284634	167
4	1411	80.909018962993	168
4	1411	80.909018962993	169
4	1411	80.909018962993	170
4	1437	82.767891373376	171
4	1437	82.767891373376	172
4	1437	82.767891373376	173
4	1462	84.162105711594	174
4	1462	84.162105711594	175
4	1462	84.162105711594	176
4	1486	85.670050359363	177
4	1486	85.670050359363	178
4	1486	85.670050359363	179
4	1507	87.360562439544	180
4	1507	87.360562439544	181
4	1507	87.360562439544	182
4	1544	88.946594115204	183
4	1544	88.946594115204	184
4	1544	88.946594115204	185
4	1557	90.318851313649	186
4	1557	90.318851313649	187
4	1557	90.318851313649	188
4	1584	91.976813470839	189
4	1584	91.976813470839	190
4	1584	91.976813470839	191
4	1609	93.673364618657	192
4	1609	93.673364618657	193
4	1609	93.673364618657	194
4	1635	95.494419322603	195
4	1635	95.494419322603	196
4	1635	95.494419322603	197
4	1659	97.448129675738	198
4	1659	97.448129675738	199
4	1659	97.448129675738	200
4	1686	98.811854277079	201
4	1686	98.811854277079	202
4	1686	98.811854277079	203
4	1711	100.310167416344	204
4	1711	100.310167416344	205
4	1711	100.310167416344	206
4	1737	102.07992008865	207
4	1737	102.07992008865	208
4	1737	102.07992008865	209
4	1762	103.365818940521	210
4	1762	103.365818940521	211
4	1762	103.365818940521	212
4	1787	105.24662921725	213
4	1787	105.24662921725	214
4	1787	105.24662921725	215
4	1816	107.183515263096	216
4	1816	107.183515263096	217
4	1816	107.183515263096	218
4	1833	108.643372646586	219
4	1833	108.643372646586	220
4	1833	108.643372646586	221
4	1861	110.559479062771	222
4	1861	110.559479062771	223
4	1861	110.559479062771	224
4	1887	111.830111056822	225
4	1887	111.830111056822	226
4	1887	111.830111056822	227
4	1911	113.645512997289	228
4	1911	113.645512997289	229
4	1911	113.645512997289	230
4	1932	115.276576116027	231
4	1932	115.276576116027	232
4	1932	115.276576116027	233
4	1959	116.701381515258	234
4	1959	116.701381515258	235
4	1959	116.701381515258	236
4	1984	117.887991291123	237
4	1984	117.887991291123	238
4	1984	117.887991291123	239
4	2009	119.227474123082	240
4	2009	119.227474123082	241
4	2009	119.227474123082	242
4	2036	121.183075388148	243
4	2036	121.183075388148	244
4	2036	121.183075388148	245
4	2058	123.150127440588	246
4	2058	123.150127440588	247
4	2058	123.150127440588	248
4	2083	124.531380995052	249
4	2083	124.531380995052	250
4	2083	124.531380995052	251
4	2112	125.630530494631	252
4	2112	125.630530494631	253
4	2112	125.630530494631	254
4	2132	127.42811628183	255
4	2132	127.42811628183	256
4	2132	127.42811628183	257
4	2162	128.635158313673	258
4	2162	128.635158313673	259
4	2162	128.635158313673	260
4	2182	130.137383732078	261
4	2182	130.137383732078	262
4	2182	130.137383732078	263
4	2212	131.714999326893	264
4	2212	131.714999326893	265
4	2212	131.714999326893	266
4	2233	132.71741231646	267
4	2233	132.71741231646	268
4	2233	132.71741231646	269
4	2259	134.659409773903	270
4	2259	134.659409773903	271
4	2259	134.659409773903	272
4	2284	136.406623322955	273
4	2284	136.406623322955	274
4	2284	136.406623322955	275
4	2311	137.791887092971	276
4	2311	137.791887092971	277
4	2311	137.791887092971	278
4	2332	139.779090168198	279
4	2332	139.779090168198	280
4	2332	139.779090168198	281
4	2362	140.806274425947	282
4	2362	140.806274425947	283
4	2362	140.806274425947	284
4	2386	142.566251089902	285
4	2386	142.566251089902	286
4	2386	142.566251089902	287
4	2419	144.549818469063	288
4	2419	144.549818469063	289
4	2419	144.549818469063	290
4	2444	145.573906446353	291
4	2444	145.573906446353	292
4	2444	145.573906446353	293
4	2458	147.522994787142	294
4	2458	147.522994787142	295
4	2458	147.522994787142	296
4	2487	148.998301150231	297
4	2487	148.998301150231	298
4	2487	148.998301150231	299
4	2509	150.381743735158	300
4	2509	150.381743735158	301
4	2509	150.381743735158	302
4	2537	151.618840590247	303
4	2537	151.618840590247	304
4	2537	151.618840590247	305
4	2559	152.720181783574	306
4	2559	152.720181783574	307
4	2559	152.720181783574	308
4	2583	153.884082415277	309
4	2583	153.884082415277	310
4	2583	153.884082415277	311
4	2607	154.997987343558	312
4	2607	154.997987343558	313
4	2607	154.997987343558	314
4	2633	156.675880809828	315
4	2633	156.675880809828	316
4	2633	156.675880809828	317
4	2659	158.369042709719	318
4	2659	158.369042709719	319
4	2659	158.369042709719	320
4	2684	160.320860886452	321
4	2684	160.320860886452	322
4	2684	160.320860886452	323
4	2708	161.655156733858	324
4	2708	161.655156733858	325
4	2708	161.655156733858	326
4	2737	162.700130128911	327
4	2737	162.700130128911	328
4	2737	162.700130128911	329
4	2757	163.843852871269	330
4	2757	163.843852871269	331
4	2757	163.843852871269	332
4	2787	164.903784210616	333
4	2787	164.903784210616	334
4	2787	164.903784210616	335
4	2808	166.831069070009	336
4	2808	166.831069070009	337
4	2808	166.831069070009	338
4	2833	168.59092406174	339
4	2833	168.59092406174	340
4	2833	168.59092406174	341
4	2862	170.148090434432	342
4	2862	170.148090434432	343
4	2862	170.148090434432	344
4	2886	171.73393655594	345
4	2886	171.73393655594	346
4	2886	171.73393655594	347
4	2914	173.392084098109	348
4	2914	173.392084098109	349
4	2914	173.392084098109	350
4	2933	174.472049865693	351
4	2933	174.472049865693	352
4	2933	174.472049865693	353
4	2965	175.625202098935	354
4	2965	175.625202098935	355
4	2965	175.625202098935	356
4	2982	176.650421164409	357
4	2982	176.650421164409	358
4	2982	176.650421164409	359
4	3008	178.432987373276	360
4	3008	178.432987373276	361
4	3008	178.432987373276	362
4	3041	180.178740066484	363
4	3041	180.178740066484	364
4	3041	180.178740066484	365
4	3059	181.640094741033	366
4	3059	181.640094741033	367
4	3059	181.640094741033	368
4	3090	182.664448036767	369
4	3090	182.664448036767	370
4	3090	182.664448036767	371
4	3108	184.073222352591	372
4	3108	184.073222352591	373
4	3108	184.073222352591	374
4	3134	185.403112167061	375
4	3134	185.403112167061	376
4	3134	185.403112167061	377
4	3159	186.806651448327	378
4	3159	186.806651448327	379
4	3159	186.806651448327	380
4	3187	187.979066762521	381
4	3187	187.979066762521	382
4	3187	187.979066762521	383
4	3215	189.221379810309	384
4	3215	189.221379810309	385
4	3215	189.221379810309	386
4	3233	190.488274329823	387
4	3233	190.488274329823	388
4	3233	190.488274329823	389
4	3258	191.67422760663	390
4	3258	191.67422760663	391
4	3258	191.67422760663	392
4	3291	193.021027732505	393
4	3291	193.021027732505	394
4	3291	193.021027732505	395
4	3309	194.281565817022	396
4	3309	194.281565817022	397
4	3309	194.281565817022	398
4	3337	195.802261656404	399
4	3337	195.802261656404	400
4	3337	195.802261656404	401
4	3361	196.913518352635	402
4	3361	196.913518352635	403
4	3361	196.913518352635	404
4	3383	198.313411034247	405
4	3383	198.313411034247	406
4	3383	198.313411034247	407
4	3411	199.665241487424	408
4	3411	199.665241487424	409
4	3411	199.665241487424	410
4	3445	201.122958245598	411
4	3445	201.122958245598	412
4	3445	201.122958245598	413
4	3461	202.151264466605	414
4	3461	202.151264466605	415
4	3461	202.151264466605	416
4	3485	204.061720624713	417
4	3485	204.061720624713	418
4	3485	204.061720624713	419
4	3511	205.149867798628	420
4	3511	205.149867798628	421
4	3511	205.149867798628	422
4	3534	206.177020746969	423
4	3534	206.177020746969	424
4	3534	206.177020746969	425
4	3561	207.282830428789	426
4	3561	207.282830428789	427
4	3561	207.282830428789	428
4	3583	208.937681517732	429
4	3583	208.937681517732	430
4	3583	208.937681517732	431
4	3612	210.105594203373	432
4	3612	210.105594203373	433
4	3612	210.105594203373	434
4	3633	212.02721300225	435
4	3633	212.02721300225	436
4	3633	212.02721300225	437
4	3661	213.749307282101	438
4	3661	213.749307282101	439
4	3661	213.749307282101	440
4	3683	214.889847109518	441
4	3683	214.889847109518	442
4	3683	214.889847109518	443
4	3712	216.320142617198	444
4	3712	216.320142617198	445
4	3712	216.320142617198	446
4	3735	217.703390632329	447
4	3735	217.703390632329	448
4	3735	217.703390632329	449
4	3769	219.669601448829	450
4	3769	219.669601448829	451
4	3769	219.669601448829	452
4	3786	221.008348934344	453
4	3786	221.008348934344	454
4	3786	221.008348934344	455
4	3809	222.797485104473	456
4	3809	222.797485104473	457
4	3809	222.797485104473	458
4	3834	224.702642626058	459
4	3834	224.702642626058	460
4	3834	224.702642626058	461
4	3868	225.772883906184	462
4	3868	225.772883906184	463
4	3868	225.772883906184	464
4	3883	227.250985654577	465
4	3883	227.250985654577	466
4	3883	227.250985654577	467
4	3909	228.282203807811	468
4	3909	228.282203807811	469
4	3909	228.282203807811	470
4	3932	229.602020233115	471
4	3932	229.602020233115	472
4	3932	229.602020233115	473
4	3962	231.203017634769	474
4	3962	231.203017634769	475
4	3962	231.203017634769	476
4	3983	233.149593362243	477
4	3983	233.149593362243	478
4	3983	233.149593362243	479
4	4011	234.879800733755	480
4	4011	234.879800733755	481
4	4011	234.879800733755	482
4	4037	236.865298908048	483
4	4037	236.865298908048	484
4	4037	236.865298908048	485
4	4072	238.734067663079	486
4	4072	238.734067663079	487
4	4072	238.734067663079	488
4	4083	239.733593556182	489
4	4083	239.733593556182	490
4	4083	239.733593556182	491
5	14	0.230608645336	0
5	14	0.230608645336	1
5	41	2.134975033952	2
5	41	2.134975033952	3
5	67	4.117561924115	4
5	67	4.117561924115	5
5	95	5.195489753571	6
5	95	5.195489753571	7
5	123	6.609059490095	8
5	123	6.609059490095	9
5	144	8.537064840346	10
5	144	8.537064840346	11
5	163	10.089634939333	12
5	163	10.089634939333	13
5	194	11.272456305287	14
5	194	11.272456305287	15
5	215	12.758670202041	16
5	215	12.758670202041	17
5	245	13.941614196414	18
5	245	13.941614196414	19
5	270	15.036519245872	20
5	270	15.036519245872	21
5	292	16.691543689288	22
5	292	16.691543689288	23
5	323	18.352384096179	24
5	323	18.352384096179	25
5	348	19.682781993139	26
5	348	19.682781993139	27
5	373	21.007082389167	28
5	373	21.007082389167	29
5	395	22.284288423949	30
5	395	22.284288423949	31
5	423	24.214732299757	32
5	423	24.214732299757	33
5	448	25.262427627483	34
5	448	25.262427627483	35
5	473	26.634793251417	36
5	473	26.634793251417	37
5	494	28.365809247078	38
5	494	28.365809247078	39
5	523	29.424580058959	40
5	523	29.424580058959	41
5	544	31.039280304074	42
5	544	31.039280304074	43
5	573	32.104899018787	44
5	573	32.104899018787	45
5	591	33.954430289708	46
5	591	33.954430289708	47
5	616	35.059655553705	48
5	616	35.059655553705	49
5	642	36.327217757191	50
5	642	36.327217757191	51
5	673	37.865089532936	52
5	673	37.865089532936	53
5	695	39.510858856898	54
5	695	39.510858856898	55
5	723	41.420630598571	56
5	723	41.420630598571	57
5	744	42.881058628861	58
5	744	42.881058628861	59
5	767	44.452924506826	60
5	767	44.452924506826	61
5	794	45.93620933634	62
5	794	45.93620933634	63
5	819	47.42816594468	64
5	819	47.42816594468	65
5	848	48.963984988762	66
5	848	48.963984988762	67
5	869	50.122661776882	68
5	869	50.122661776882	69
5	895	51.143390880391	70
5	895	51.143390880391	71
5	923	52.490952101357	72
5	923	52.490952101357	73
5	941	53.460469431976	74
5	941	53.460469431976	75
5	967	54.776155735796	76
5	967	54.776155735796	77
5	995	56.487217487497	78
5	995	56.487217487497	79
5	1023	58.117208627034	80
5	1023	58.117208627034	81
5	1044	60.065412462188	82
5	1044	60.065412462188	83
5	1065	61.103825235345	84
5	1065	61.103825235345	85
5	1098	62.34756979219	86
5	1098	62.34756979219	87
5	1117	63.370973000113	88
5	1117	63.370973000113	89
5	1148	65.022391308286	90
5	1148	65.022391308286	91
5	1173	66.236430663325	92
5	1173	66.236430663325	93
5	1198	67.262233701002	94
5	1198	67.262233701002	95
5	1223	68.600549084506	96
5	1223	68.600549084506	97
5	1248	70.194381083801	98
5	1248	70.194381083801	99
5	1266	72.163162236592	100
5	1266	72.163162236592	101
5	1291	73.251977570132	102
5	1291	73.251977570132	103
5	1319	74.472148342876	104
5	1319	74.472148342876	105
5	1344	75.9299544134	106
5	1344	75.9299544134	107
5	1370	77.248184192685	108
5	1370	77.248184192685	109
5	1398	79.009320936517	110
5	1398	79.009320936517	111
5	1420	80.929052758844	112
5	1420	80.929052758844	113
5	1445	82.789165756292	114
5	1445	82.789165756292	115
5	1466	84.168145767302	116
5	1466	84.168145767302	117
5	1495	85.689755719211	118
5	1495	85.689755719211	119
5	1523	87.41939642448	120
5	1523	87.41939642448	121
5	1545	88.946898645816	122
5	1545	88.946898645816	123
5	1573	90.35706429265	124
5	1573	90.35706429265	125
5	1589	91.986740944179	126
5	1589	91.986740944179	127
5	1620	93.690151615724	128
5	1620	93.690151615724	129
5	1644	95.50484027536	130
5	1644	95.50484027536	131
5	1669	97.462164413834	132
5	1669	97.462164413834	133
5	1698	98.85292913326	134
5	1698	98.85292913326	135
5	1720	100.326928849999	136
5	1720	100.326928849999	137
5	1748	102.122716885534	138
5	1748	102.122716885534	139
5	1770	103.389721712901	140
5	1770	103.389721712901	141
5	1794	105.257579864859	142
5	1794	105.257579864859	143
5	1817	107.185274444948	144
5	1817	107.185274444948	145
5	1848	108.687816360078	146
5	1848	108.687816360078	147
5	1870	110.589760910893	148
5	1870	110.589760910893	149
5	1898	111.870985499421	150
5	1898	111.870985499421	151
5	1923	113.668005131083	152
5	1923	113.668005131083	153
5	1948	115.303580111246	154
5	1948	115.303580111246	155
5	1969	116.718755212404	156
5	1969	116.718755212404	157
5	1995	117.908390457843	158
5	1995	117.908390457843	159
5	2020	119.244071133232	160
5	2020	119.244071133232	161
5	2045	121.198042525246	162
5	2045	121.198042525246	163
5	2070	123.175739989568	164
5	2070	123.175739989568	165
5	2098	124.561368426011	166
5	2098	124.561368426011	167
5	2119	125.641427855496	168
5	2119	125.641427855496	169
5	2148	127.475193078465	170
5	2148	127.475193078465	171
5	2169	128.648996160526	172
5	2169	128.648996160526	173
5	2198	130.184593755682	174
5	2198	130.184593755682	175
5	2219	131.733633289986	176
5	2219	131.733633289986	177
5	2248	132.758843504254	178
5	2248	132.758843504254	179
5	2269	134.683716331362	180
5	2269	134.683716331362	181
5	2298	136.465972625519	182
5	2298	136.465972625519	183
5	2323	137.856626508417	184
5	2323	137.856626508417	185
5	2348	139.822266988053	186
5	2348	139.822266988053	187
5	2370	140.833772182888	188
5	2370	140.833772182888	189
5	2395	142.591436282997	190
5	2395	142.591436282997	191
5	2423	144.560248616737	192
5	2423	144.560248616737	193
5	2440	145.561528432593	194
5	2440	145.561528432593	195
5	2470	147.543483471281	196
5	2470	147.543483471281	197
5	2492	149.001521332954	198
5	2492	149.001521332954	199
5	2523	150.44861864363	200
5	2523	150.44861864363	201
5	2545	151.64260555367	202
5	2545	151.64260555367	203
5	2573	152.753895508203	204
5	2573	152.753895508203	205
5	2598	153.909423122448	206
5	2598	153.909423122448	207
5	2623	155.052830661548	208
5	2623	155.052830661548	209
5	2643	156.705628740016	210
5	2643	156.705628740016	211
5	2673	158.409138510629	212
5	2673	158.409138510629	213
5	2693	160.332677166673	214
5	2693	160.332677166673	215
5	2723	161.690347098193	216
5	2723	161.690347098193	217
5	2748	162.722373887198	218
5	2748	162.722373887198	219
5	2773	163.911742095279	220
5	2773	163.911742095279	221
5	2791	164.90945322785	222
5	2791	164.90945322785	223
5	2819	166.847340923987	224
5	2819	166.847340923987	225
5	2845	168.62612722514	226
5	2845	168.62612722514	227
5	2870	170.166372210051	228
5	2870	170.166372210051	229
5	2894	171.750090693783	230
5	2894	171.750090693783	231
5	2913	173.391202767292	232
5	2913	173.391202767292	233
5	2943	174.495173226414	234
5	2943	174.495173226414	235
5	2969	175.635363235717	236
5	2969	175.635363235717	237
5	2998	176.729789776194	238
5	2998	176.729789776194	239
5	3023	178.471481793551	240
5	3023	178.471481793551	241
5	3040	180.172310378479	242
5	3040	180.172310378479	243
5	3070	181.654534892469	244
5	3070	181.654534892469	245
5	3091	182.664542484009	246
5	3091	182.664542484009	247
5	3120	184.097518026712	248
5	3120	184.097518026712	249
5	3148	185.438403274931	250
5	3148	185.438403274931	251
5	3170	186.834273676216	252
5	3170	186.834273676216	253
5	3194	187.992741150146	254
5	3194	187.992741150146	255
5	3216	189.223807028788	256
5	3216	189.223807028788	257
5	3244	190.512562703357	258
5	3244	190.512562703357	259
5	3273	191.707168216712	260
5	3273	191.707168216712	261
5	3290	193.019516581536	262
5	3290	193.019516581536	263
5	3320	194.304040904677	264
5	3320	194.304040904677	265
5	3344	195.813493976823	266
5	3344	195.813493976823	267
5	3373	196.961626239735	268
5	3373	196.961626239735	269
5	3394	198.338709231244	270
5	3394	198.338709231244	271
5	3419	199.686097103357	272
5	3419	199.686097103357	273
5	3441	201.117772183159	274
5	3441	201.117772183159	275
5	3470	202.171538451584	276
5	3470	202.171538451584	277
5	3495	204.078627326521	278
5	3495	204.078627326521	279
5	3523	205.195803251901	280
5	3523	205.195803251901	281
5	3545	206.193275312529	282
5	3545	206.193275312529	283
5	3570	207.303242805451	284
5	3570	207.303242805451	285
5	3598	208.994566030347	286
5	3598	208.994566030347	287
5	3619	210.116508521634	288
5	3619	210.116508521634	289
5	3648	212.056960593466	290
5	3648	212.056960593466	291
5	3673	213.774609693764	292
5	3673	213.774609693764	293
5	3694	214.911160650385	294
5	3694	214.911160650385	295
5	3723	216.349532638352	296
5	3723	216.349532638352	297
5	3744	217.717188135107	298
5	3744	217.717188135107	299
5	3773	219.689849583626	300
5	3773	219.689849583626	301
5	3798	221.063490450033	302
5	3798	221.063490450033	303
5	3820	222.812859605206	304
5	3820	222.812859605206	305
5	3845	224.718700869146	306
5	3845	224.718700869146	307
5	3865	225.759533311146	308
5	3865	225.759533311146	309
5	3895	227.269897196016	310
5	3895	227.269897196016	311
5	3919	228.298454767576	312
5	3919	228.298454767576	313
5	3948	229.63624501081	314
5	3948	229.63624501081	315
5	3973	231.2348729953	316
5	3973	231.2348729953	317
5	3998	233.199543049365	318
5	3998	233.199543049365	319
5	4023	234.906675929455	320
5	4023	234.906675929455	321
5	4048	236.913569069816	322
5	4048	236.913569069816	323
5	4065	238.712727489569	324
5	4065	238.712727489569	325
5	4095	239.754416362398	326
5	4095	239.754416362398	327
6	20	0.240053303466	0
6	20	0.240053303466	1
6	20	0.240053303466	2
6	47	2.159000271022	3
6	47	2.159000271022	4
6	47	2.159000271022	5
6	70	4.122317038038	6
6	70	4.122317038038	7
6	70	4.122317038038	8
6	91	5.187354052981	9
6	91	5.187354052981	10
6	91	5.187354052981	11
6	116	6.583464080541	12
6	116	6.583464080541	13
6	116	6.583464080541	14
6	145	8.546379783222	15
6	145	8.546379783222	16
6	145	8.546379783222	17
6	172	10.103874017586	18
6	172	10.103874017586	19
6	172	10.103874017586	20
6	197	11.291261841064	21
6	197	11.291261841064	22
6	197	11.291261841064	23
6	216	12.765448862937	24
6	216	12.765448862937	25
6	216	12.765448862937	26
6	244	13.933995192716	27
6	244	13.933995192716	28
6	244	13.933995192716	29
6	266	15.028426132609	30
6	266	15.028426132609	31
6	266	15.028426132609	32
6	291	16.685511993372	33
6	291	16.685511993372	34
6	291	16.685511993372	35
6	315	18.312916724752	36
6	315	18.312916724752	37
6	315	18.312916724752	38
6	341	19.655390928507	39
6	341	19.655390928507	40
6	341	19.655390928507	41
6	362	20.973403591995	42
6	362	20.973403591995	43
6	362	20.973403591995	44
6	391	22.274971708214	45
6	391	22.274971708214	46
6	391	22.274971708214	47
6	419	24.203687636264	48
6	419	24.203687636264	49
6	419	24.203687636264	50
6	436	25.2379026299	51
6	436	25.2379026299	52
6	436	25.2379026299	53
6	465	26.617894835891	54
6	465	26.617894835891	55
6	465	26.617894835891	56
6	497	28.382836693406	57
6	497	28.382836693406	58
6	497	28.382836693406	59
6	516	29.401554085408	60
6	516	29.401554085408	61
6	516	29.401554085408	62
6	545	31.041055278559	63
6	545	31.041055278559	64
6	545	31.041055278559	65
6	565	32.062364973086	66
6	565	32.062364973086	67
6	565	32.062364973086	68
6	590	33.947590789218	69
6	590	33.947590789218	70
6	590	33.947590789218	71
6	620	35.067395285072	72
6	620	35.067395285072	73
6	620	35.067395285072	74
6	640	36.322252609784	75
6	640	36.322252609784	76
6	640	36.322252609784	77
6	666	37.853646029033	78
6	666	37.853646029033	79
6	666	37.853646029033	80
6	694	39.507102027246	81
6	694	39.507102027246	82
6	694	39.507102027246	83
6	715	41.362266092909	84
6	715	41.362266092909	85
6	715	41.362266092909	86
6	747	42.892656674845	87
6	747	42.892656674845	88
6	747	42.892656674845	89
6	766	44.44954839171	90
6	766	44.44954839171	91
6	766	44.44954839171	92
6	795	45.940569486495	93
6	795	45.940569486495	94
6	795	45.940569486495	95
6	820	47.428461587211	96
6	820	47.428461587211	97
6	820	47.428461587211	98
6	844	48.940372353394	99
6	844	48.940372353394	100
6	844	48.940372353394	101
6	872	50.149804161311	102
6	872	50.149804161311	103
6	872	50.149804161311	104
6	894	51.140279878364	105
6	894	51.140279878364	106
6	894	51.140279878364	107
6	915	52.44594975353	108
6	915	52.44594975353	109
6	915	52.44594975353	110
6	942	53.461398203997	111
6	942	53.461398203997	112
6	942	53.461398203997	113
6	966	54.770693270466	114
6	966	54.770693270466	115
6	966	54.770693270466	116
6	994	56.48351192187	117
6	994	56.48351192187	118
6	994	56.48351192187	119
6	1019	58.105487960242	120
6	1019	58.105487960242	121
6	1019	58.105487960242	122
6	1045	60.07032006938	123
6	1045	60.07032006938	124
6	1045	60.07032006938	125
6	1067	61.108673447673	126
6	1067	61.108673447673	127
6	1067	61.108673447673	128
6	1090	62.331819633791	129
6	1090	62.331819633791	130
6	1090	62.331819633791	131
6	1116	63.370811226288	132
6	1116	63.370811226288	133
6	1116	63.370811226288	134
6	1140	64.998908764852	135
6	1140	64.998908764852	136
6	1140	64.998908764852	137
6	1165	66.187162366157	138
6	1165	66.187162366157	139
6	1165	66.187162366157	140
6	1191	67.226517513211	141
6	1191	67.226517513211	142
6	1191	67.226517513211	143
6	1219	68.587993400753	144
6	1219	68.587993400753	145
6	1219	68.587993400753	146
6	1240	70.166484692709	147
6	1240	70.166484692709	148
6	1240	70.166484692709	149
6	1265	72.160173986156	150
6	1265	72.160173986156	151
6	1265	72.160173986156	152
6	1292	73.258421496978	153
6	1292	73.258421496978	154
6	1292	73.258421496978	155
6	1320	74.474856727017	156
6	1320	74.474856727017	157
6	1320	74.474856727017	158
6	1340	75.915976888336	159
6	1340	75.915976888336	160
6	1340	75.915976888336	161
6	1369	77.24809947229	162
6	1369	77.24809947229	163
6	1369	77.24809947229	164
6	1391	78.994687965377	165
6	1391	78.994687965377	166
6	1391	78.994687965377	167
6	1419	80.928744384388	168
6	1419	80.928744384388	169
6	1419	80.928744384388	170
6	1444	82.782167313506	171
6	1444	82.782167313506	172
6	1444	82.782167313506	173
6	1467	84.168735018103	174
6	1467	84.168735018103	175
6	1467	84.168735018103	176
6	1491	85.68044124055	177
6	1491	85.68044124055	178
6	1491	85.68044124055	179
6	1511	87.372880477094	180
6	1511	87.372880477094	181
6	1511	87.372880477094	182
6	1540	88.933160054852	183
6	1540	88.933160054852	184
6	1540	88.933160054852	185
6	1561	90.329743134406	186
6	1561	90.329743134406	187
6	1561	90.329743134406	188
6	1588	91.985302578631	189
6	1588	91.985302578631	190
6	1588	91.985302578631	191
6	1619	93.688657171036	192
6	1619	93.688657171036	193
6	1619	93.688657171036	194
6	1647	95.517918338168	195
6	1647	95.517918338168	196
6	1647	95.517918338168	197
6	1672	97.493770843165	198
6	1672	97.493770843165	199
6	1672	97.493770843165	200
6	1694	98.829139029543	201
6	1694	98.829139029543	202
6	1694	98.829139029543	203
6	1716	100.321918470098	204
6	1716	100.321918470098	205
6	1716	100.321918470098	206
6	1741	102.085927203711	207
6	1741	102.085927203711	208
6	1741	102.085927203711	209
6	1769	103.380832249267	210
6	1769	103.380832249267	211
6	1769	103.380832249267	212
6	1795	105.259341821436	213
6	1795	105.259341821436	214
6	1795	105.259341821436	215
6	1815	107.182619650926	216
6	1815	107.182619650926	217
6	1815	107.182619650926	218
6	1844	108.672953291213	219
6	1844	108.672953291213	220
6	1844	108.672953291213	221
6	1869	110.581591867569	222
6	1869	110.581591867569	223
6	1869	110.581591867569	224
6	1891	111.839767928858	225
6	1891	111.839767928858	226
6	1891	111.839767928858	227
6	1916	113.655859482588	228
6	1916	113.655859482588	229
6	1916	113.655859482588	230
6	1940	115.291094431094	231
6	1940	115.291094431094	232
6	1940	115.291094431094	233
6	1972	116.740196658079	234
6	1972	116.740196658079	235
6	1972	116.740196658079	236
6	1988	117.896608209063	237
6	1988	117.896608209063	238
6	1988	117.896608209063	239
6	2016	119.237535856002	240
6	2016	119.237535856002	241
6	2016	119.237535856002	242
6	2044	121.19635391702	243
6	2044	121.19635391702	244
6	2044	121.19635391702	245
6	2066	123.167946825897	246
6	2066	123.167946825897	247
6	2066	123.167946825897	248
6	2089	124.548137986205	249
6	2089	124.548137986205	250
6	2089	124.548137986205	251
6	2122	125.659501214192	252
6	2122	125.659501214192	253
6	2122	125.659501214192	254
6	2136	127.439035490729	255
6	2136	127.439035490729	256
6	2136	127.439035490729	257
6	2170	128.653091446461	258
6	2170	128.653091446461	259
6	2170	128.653091446461	260
6	2191	130.174143245775	261
6	2191	130.174143245775	262
6	2191	130.174143245775	263
6	2220	131.734302341645	264
6	2220	131.734302341645	265
6	2220	131.734302341645	266
6	2241	132.738869416926	267
6	2241	132.738869416926	268
6	2241	132.738869416926	269
6	2270	134.686018151329	270
6	2270	134.686018151329	271
6	2270	134.686018151329	272
6	2291	136.419946747523	273
6	2291	136.419946747523	274
6	2291	136.419946747523	275
6	2315	137.803666421326	276
6	2315	137.803666421326	277
6	2315	137.803666421326	278
6	2344	139.809074143325	279
6	2344	139.809074143325	280
6	2344	139.809074143325	281
6	2369	140.826538909388	282
6	2369	140.826538909388	283
6	2369	140.826538909388	284
6	2394	142.588785096926	285
6	2394	142.588785096926	286
6	2394	142.588785096926	287
6	2415	144.523859135951	288
6	2415	144.523859135951	289
6	2415	144.523859135951	290
6	2441	145.565468040258	291
6	2441	145.565468040258	292
6	2441	145.565468040258	293
6	2466	147.534669675619	294
6	2466	147.534669675619	295
6	2466	147.534669675619	296
6	2491	149.001354428065	297
6	2491	149.001354428065	298
6	2491	149.001354428065	299
6	2516	150.392986919138	300
6	2516	150.392986919138	301
6	2516	150.392986919138	302
6	2544	151.642487079884	303
6	2544	151.642487079884	304
6	2544	151.642487079884	305
6	2566	152.736687241614	306
6	2566	152.736687241614	307
6	2566	152.736687241614	308
6	2590	153.894229245793	309
6	2590	153.894229245793	310
6	2590	153.894229245793	311
6	2611	155.011760857056	312
6	2611	155.011760857056	313
6	2611	155.011760857056	314
6	2642	156.704497638195	315
6	2642	156.704497638195	316
6	2642	156.704497638195	317
6	2666	158.380776703903	318
6	2666	158.380776703903	319
6	2666	158.380776703903	320
6	2689	160.330274537174	321
6	2689	160.330274537174	322
6	2689	160.330274537174	323
6	2715	161.666258680734	324
6	2715	161.666258680734	325
6	2715	161.666258680734	326
6	2744	162.710728100604	327
6	2744	162.710728100604	328
6	2744	162.710728100604	329
6	2761	163.861565571622	330
6	2761	163.861565571622	331
6	2761	163.861565571622	332
6	2792	164.912090578876	333
6	2792	164.912090578876	334
6	2792	164.912090578876	335
6	2820	166.853334004982	336
6	2820	166.853334004982	337
6	2820	166.853334004982	338
6	2841	168.617505831728	339
6	2841	168.617505831728	340
6	2841	168.617505831728	341
6	2866	170.157677831514	342
6	2866	170.157677831514	343
6	2866	170.157677831514	344
6	2895	171.759241985179	345
6	2895	171.759241985179	346
6	2895	171.759241985179	347
6	2917	173.400259615468	348
6	2917	173.400259615468	349
6	2917	173.400259615468	350
6	2941	174.48787295489	351
6	2941	174.48787295489	352
6	2941	174.48787295489	353
6	2970	175.640638413053	354
6	2970	175.640638413053	355
6	2970	175.640638413053	356
6	2986	176.666594408845	357
6	2986	176.666594408845	358
6	2986	176.666594408845	359
6	3016	178.453562845324	360
6	3016	178.453562845324	361
6	3016	178.453562845324	362
6	3044	180.184926817809	363
6	3044	180.184926817809	364
6	3044	180.184926817809	365
6	3069	181.652127259398	366
6	3069	181.652127259398	367
6	3069	181.652127259398	368
6	3092	182.672990512066	369
6	3092	182.672990512066	370
6	3092	182.672990512066	371
6	3116	184.092094327362	372
6	3116	184.092094327362	373
6	3116	184.092094327362	374
6	3141	185.416932160075	375
6	3141	185.416932160075	376
6	3141	185.416932160075	377
6	3169	186.826329948197	378
6	3169	186.826329948197	379
6	3169	186.826329948197	380
6	3197	188.004799691105	381
6	3197	188.004799691105	382
6	3197	188.004799691105	383
6	3217	189.226563688777	384
6	3217	189.226563688777	385
6	3217	189.226563688777	386
6	3247	190.556232156836	387
6	3247	190.556232156836	388
6	3247	190.556232156836	389
6	3269	191.691934658989	390
6	3269	191.691934658989	391
6	3269	191.691934658989	392
6	3292	193.022504765137	393
6	3292	193.022504765137	394
6	3292	193.022504765137	395
6	3319	194.303127683894	396
6	3319	194.303127683894	397
6	3319	194.303127683894	398
6	3345	195.821333001729	399
6	3345	195.821333001729	400
6	3345	195.821333001729	401
6	3365	196.938836541476	402
6	3365	196.938836541476	403
6	3365	196.938836541476	404
6	3395	198.342904105745	405
6	3395	198.342904105745	406
6	3395	198.342904105745	407
6	3420	199.68958061126	408
6	3420	199.68958061126	409
6	3420	199.68958061126	410
6	3440	201.110314623676	411
6	3440	201.110314623676	412
6	3440	201.110314623676	413
6	3469	202.164476289515	414
6	3469	202.164476289515	415
6	3469	202.164476289515	416
6	3491	204.069714790481	417
6	3491	204.069714790481	418
6	3491	204.069714790481	419
6	3515	205.162636682454	420
6	3515	205.162636682454	421
6	3515	205.162636682454	422
6	3541	206.190508090067	423
6	3541	206.190508090067	424
6	3541	206.190508090067	425
6	3566	207.294864505849	426
6	3566	207.294864505849	427
6	3566	207.294864505849	428
6	3590	208.95127786294	429
6	3590	208.95127786294	430
6	3590	208.95127786294	431
6	3620	210.125096585403	432
6	3620	210.125096585403	433
6	3620	210.125096585403	434
6	3641	212.041844814863	435
6	3641	212.041844814863	436
6	3641	212.041844814863	437
6	3665	213.761217254696	438
6	3665	213.761217254696	439
6	3665	213.761217254696	440
6	3695	214.91360588222	441
6	3695	214.91360588222	442
6	3695	214.91360588222	443
6	3716	216.327785087711	444
6	3716	216.327785087711	445
6	3716	216.327785087711	446
6	3745	217.717230210428	447
6	3745	217.717230210428	448
6	3745	217.717230210428	449
6	3765	219.658904598776	450
6	3765	219.658904598776	451
6	3765	219.658904598776	452
6	3794	221.038763421602	453
6	3794	221.038763421602	454
6	3794	221.038763421602	455
6	3819	222.812422656444	456
6	3819	222.812422656444	457
6	3819	222.812422656444	458
6	3844	224.718229512047	459
6	3844	224.718229512047	460
6	3844	224.718229512047	461
6	3872	225.791679716381	462
6	3872	225.791679716381	463
6	3872	225.791679716381	464
6	3891	227.262475141873	465
6	3891	227.262475141873	466
6	3891	227.262475141873	467
6	3920	228.299888679169	468
6	3920	228.299888679169	469
6	3920	228.299888679169	470
6	3936	229.612782955837	471
6	3936	229.612782955837	472
6	3936	229.612782955837	473
6	3966	231.209557298423	474
6	3966	231.209557298423	475
6	3966	231.209557298423	476
6	3990	233.160287784939	477
6	3990	233.160287784939	478
6	3990	233.160287784939	479
6	4015	234.892632240021	480
6	4015	234.892632240021	481
6	4015	234.892632240021	482
6	4041	236.870486585845	483
6	4041	236.870486585845	484
6	4041	236.870486585845	485
6	4066	238.722231657375	486
6	4066	238.722231657375	487
6	4066	238.722231657375	488
6	4091	239.74537828848	489
6	4091	239.74537828848	490
6	4091	239.74537828848	491
7	22	0.240608645336	0
7	25	0.250053303466	1
7	46	2.144975033952	2
7	50	2.169000271022	3
7	72	4.127561924115	4
7	75	4.132317038038	5
7	98	5.197354052981	6
7	100	5.205489753571	7
7	122	6.593464080541	8
7	125	6.619059490095	9
7	147	8.547064840346	10
7	150	8.556379783222	11
7	168	10.099634939333	12
7	175	10.113874017586	13
7	196	11.282456305287	14
7	200	11.301261841064	15
7	218	12.768670202041	16
7	221	12.775448862937	17
7	248	13.943995192716	18
7	250	13.951614196414	19
7	273	15.038426132609	20
7	275	15.046519245872	21
7	298	16.695511993372	22
7	300	16.701543689288	23
7	318	18.322916724752	24
7	325	18.362384096179	25
7	347	19.665390928507	26
7	350	19.692781993139	27
7	368	20.983403591995	28
7	375	21.017082389167	29
7	398	22.284971708214	30
7	400	22.294288423949	31
7	422	24.213687636264	32
7	425	24.224732299757	33
7	440	25.2479026299	34
7	450	25.272427627483	35
7	469	26.627894835891	36
7	475	26.644793251417	37
7	496	28.375809247078	38
7	500	28.392836693406	39
7	522	29.411554085408	40
7	525	29.434580058959	41
7	547	31.049280304074	42
7	550	31.051055278559	43
7	569	32.072364973086	44
7	575	32.114899018787	45
7	595	33.957590789218	46
7	597	33.964430289708	47
7	622	35.069655553705	48
7	625	35.077395285072	49
7	645	36.332252609784	50
7	650	36.337217757191	51
7	672	37.863646029033	52
7	675	37.875089532936	53
7	698	39.517102027246	54
7	700	39.520858856898	55
7	718	41.372266092909	56
7	725	41.430630598571	57
7	746	42.891058628861	58
7	750	42.902656674845	59
7	773	44.45954839171	60
7	775	44.462924506826	61
7	797	45.94620933634	62
7	800	45.950569486495	63
7	822	47.43816594468	64
7	825	47.438461587211	65
7	847	48.950372353394	66
7	850	48.973984988762	67
7	871	50.132661776882	68
7	875	50.159804161311	69
7	898	51.150279878364	70
7	900	51.153390880391	71
7	919	52.45594975353	72
7	925	52.500952101357	73
7	947	53.470469431976	74
7	950	53.471398203997	75
7	973	54.780693270466	76
7	975	54.786155735796	77
7	998	56.49351192187	78
7	1000	56.497217487497	79
7	1022	58.115487960242	80
7	1025	58.127208627034	81
7	1047	60.075412462188	82
7	1050	60.08032006938	83
7	1069	61.113825235345	84
7	1075	61.118673447673	85
7	1094	62.341819633791	86
7	1100	62.35756979219	87
7	1123	63.380811226288	88
7	1125	63.380973000113	89
7	1144	65.008908764852	90
7	1150	65.032391308286	91
7	1169	66.197162366157	92
7	1175	66.246430663325	93
7	1197	67.236517513211	94
7	1200	67.272233701002	95
7	1222	68.597993400753	96
7	1225	68.610549084506	97
7	1244	70.176484692709	98
7	1250	70.204381083801	99
7	1270	72.170173986156	100
7	1272	72.173162236592	101
7	1297	73.261977570132	102
7	1300	73.268421496978	103
7	1322	74.482148342876	104
7	1325	74.484856727017	105
7	1343	75.925976888336	106
7	1347	75.9399544134	107
7	1373	77.25809947229	108
7	1375	77.258184192685	109
7	1397	79.004687965377	110
7	1400	79.019320936517	111
7	1423	80.938744384388	112
7	1425	80.939052758844	113
7	1448	82.792167313506	114
7	1450	82.799165756292	115
7	1472	84.178145767302	116
7	1475	84.178735018103	117
7	1498	85.69044124055	118
7	1500	85.699755719211	119
7	1515	87.382880477094	120
7	1525	87.42939642448	121
7	1543	88.943160054852	122
7	1550	88.956898645816	123
7	1565	90.339743134406	124
7	1575	90.36706429265	125
7	1595	91.995302578631	126
7	1597	91.996740944179	127
7	1623	93.698657171036	128
7	1625	93.700151615724	129
7	1646	95.51484027536	130
7	1650	95.527918338168	131
7	1671	97.472164413834	132
7	1675	97.503770843165	133
7	1697	98.839139029543	134
7	1700	98.86292913326	135
7	1723	100.331918470098	136
7	1725	100.336928849999	137
7	1747	102.095927203711	138
7	1750	102.132716885534	139
7	1773	103.390832249267	140
7	1775	103.399721712901	141
7	1797	105.267579864859	142
7	1800	105.269341821436	143
7	1820	107.192619650926	144
7	1825	107.195274444948	145
7	1847	108.682953291213	146
7	1850	108.697816360078	147
7	1873	110.591591867569	148
7	1875	110.599760910893	149
7	1897	111.849767928858	150
7	1900	111.880985499421	151
7	1922	113.665859482588	152
7	1925	113.678005131083	153
7	1944	115.301094431094	154
7	1950	115.313580111246	155
7	1971	116.728755212404	156
7	1975	116.750196658079	157
7	1994	117.906608209063	158
7	1998	117.918390457843	159
7	2023	119.247535856002	160
7	2025	119.254071133232	161
7	2048	121.20635391702	162
7	2050	121.208042525246	163
7	2073	123.177946825897	164
7	2075	123.185739989568	165
7	2097	124.558137986205	166
7	2100	124.571368426011	167
7	2121	125.651427855496	168
7	2125	125.669501214192	169
7	2140	127.449035490729	170
7	2150	127.485193078465	171
7	2172	128.658996160526	172
7	2175	128.663091446461	173
7	2197	130.184143245775	174
7	2200	130.194593755682	175
7	2222	131.743633289986	176
7	2225	131.744302341645	177
7	2247	132.748869416926	178
7	2250	132.768843504254	179
7	2272	134.693716331362	180
7	2275	134.696018151329	181
7	2297	136.429946747523	182
7	2300	136.475972625519	183
7	2318	137.813666421326	184
7	2325	137.866626508417	185
7	2347	139.819074143325	186
7	2350	139.832266988053	187
7	2373	140.836538909388	188
7	2375	140.843772182888	189
7	2398	142.598785096926	190
7	2400	142.601436282997	191
7	2418	144.533859135951	192
7	2425	144.570248616737	193
7	2443	145.571528432593	194
7	2447	145.575468040258	195
7	2473	147.544669675619	196
7	2475	147.553483471281	197
7	2498	149.011354428065	198
7	2500	149.011521332954	199
7	2522	150.402986919138	200
7	2525	150.45861864363	201
7	2548	151.652487079884	202
7	2550	151.65260555367	203
7	2572	152.746687241614	204
7	2575	152.763895508203	205
7	2594	153.904229245793	206
7	2600	153.919423122448	207
7	2615	155.021760857056	208
7	2625	155.062830661548	209
7	2648	156.714497638195	210
7	2650	156.715628740016	211
7	2672	158.390776703903	212
7	2675	158.419138510629	213
7	2698	160.340274537174	214
7	2700	160.342677166673	215
7	2719	161.676258680734	216
7	2725	161.700347098193	217
7	2747	162.720728100604	218
7	2750	162.732373887198	219
7	2764	163.871565571622	220
7	2775	163.921742095279	221
7	2797	164.91945322785	222
7	2800	164.922090578876	223
7	2822	166.857340923987	224
7	2825	166.863334004982	225
7	2848	168.627505831728	226
7	2850	168.63612722514	227
7	2873	170.167677831514	228
7	2875	170.176372210051	229
7	2897	171.760090693783	230
7	2900	171.769241985179	231
7	2919	173.401202767292	232
7	2925	173.410259615468	233
7	2946	174.49787295489	234
7	2950	174.505173226414	235
7	2972	175.645363235717	236
7	2975	175.650638413053	237
7	2990	176.676594408845	238
7	3000	176.739789776194	239
7	3022	178.463562845324	240
7	3025	178.481481793551	241
7	3043	180.182310378479	242
7	3050	180.194926817809	243
7	3073	181.662127259398	244
7	3075	181.664534892469	245
7	3097	182.674542484009	246
7	3100	182.682990512066	247
7	3123	184.102094327362	248
7	3125	184.107518026712	249
7	3147	185.426932160075	250
7	3150	185.448403274931	251
7	3173	186.836329948197	252
7	3175	186.844273676216	253
7	3196	188.002741150146	254
7	3200	188.014799691105	255
7	3222	189.233807028788	256
7	3225	189.236563688777	257
7	3246	190.522562703357	258
7	3250	190.566232156836	259
7	3272	191.701934658989	260
7	3275	191.717168216712	261
7	3294	193.029516581536	262
7	3300	193.032504765137	263
7	3323	194.313127683894	264
7	3325	194.314040904677	265
7	3347	195.823493976823	266
7	3350	195.831333001729	267
7	3369	196.948836541476	268
7	3375	196.971626239735	269
7	3397	198.348709231244	270
7	3400	198.352904105745	271
7	3422	199.696097103357	272
7	3425	199.69958061126	273
7	3444	201.120314623676	274
7	3447	201.127772183159	275
7	3473	202.174476289515	276
7	3475	202.181538451584	277
7	3498	204.079714790481	278
7	3500	204.088627326521	279
7	3518	205.172636682454	280
7	3525	205.205803251901	281
7	3548	206.200508090067	282
7	3550	206.203275312529	283
7	3573	207.304864505849	284
7	3575	207.313242805451	285
7	3594	208.96127786294	286
7	3600	209.004566030347	287
7	3622	210.126508521634	288
7	3625	210.135096585403	289
7	3647	212.051844814863	290
7	3650	212.066960593466	291
7	3669	213.771217254696	292
7	3675	213.784609693764	293
7	3697	214.921160650385	294
7	3700	214.92360588222	295
7	3722	216.337785087711	296
7	3725	216.359532638352	297
7	3747	217.727188135107	298
7	3750	217.727230210428	299
7	3768	219.668904598776	300
7	3775	219.699849583626	301
7	3797	221.048763421602	302
7	3800	221.073490450033	303
7	3823	222.822422656444	304
7	3825	222.822859605206	305
7	3848	224.728229512047	306
7	3850	224.728700869146	307
7	3867	225.769533311146	308
7	3875	225.801679716381	309
7	3898	227.272475141873	310
7	3900	227.279897196016	311
7	3922	228.308454767576	312
7	3925	228.309888679169	313
7	3940	229.622782955837	314
7	3950	229.64624501081	315
7	3972	231.219557298423	316
7	3975	231.2448729953	317
7	3994	233.170287784939	318
7	4000	233.209543049365	319
7	4019	234.902632240021	320
7	4025	234.916675929455	321
7	4047	236.880486585845	322
7	4050	236.923569069816	323
7	4068	238.722727489569	324
7	4071	238.732231657375	325
7	4098	239.75537828848	326
7	4100	239.764416362398	327

