version 2
run General-0-20231008-09:07:23-18645
attr configname General
attr datetime 20231008-09:07:23
attr experiment General
attr inifile omnetpp.ini
attr iterationvars ""
attr iterationvarsf ""
attr measurement ""
attr network Network3
attr processid 18645
attr repetition 0
attr replication #0
attr resultdir results
attr runnumber 0
attr seedset 0
param Network3.node[*].transmissionTime "uniform(1s, 2s)"
param Network3.node[*].delayTime "uniform(0.01s, 0.2s)"
param Network3.node[*].processingTime exponential(0.01s)
param Network3.node[0].lossProbability 0
param Network3.node[1].lossProbability 0.0
param Network3.node[2].lossProbability 0.0
param Network3.node[3].lossProbability "0.0 / 2"
param Network3.node[4].lossProbability "0.0 / 2"
param Network3.node[6].lossProbability "0.0 * 2"
param Network3.node[7].lossProbability "0.0 * 2"
param Network3.node[5].lossProbability "0.0 * 3"

vector 0 Network3.node[0] txVector ETV
vector 1 Network3.node[1] txVector ETV
vector 2 Network3.node[2] txVector ETV
vector 3 Network3.node[4] txVector ETV
vector 4 Network3.node[3] txVector ETV
vector 5 Network3.node[6] txVector ETV
vector 6 Network3.node[5] rxVector ETV
vector 7 Network3.node[7] txVector ETV
0	1	0.114274565438	0
0	1	0.114274565438	1
0	26	1.707119181827	2
0	26	1.707119181827	3
0	51	3.632715815055	4
0	51	3.632715815055	5
0	76	5.214735606295	6
0	76	5.214735606295	7
0	101	7.158483681577	8
0	101	7.158483681577	9
0	126	8.19690910711	10
0	126	8.19690910711	11
0	151	9.335092056618	12
0	151	9.335092056618	13
0	176	10.776802978088	14
0	176	10.776802978088	15
0	201	12.352749473258	16
0	201	12.352749473258	17
0	226	13.922367877635	18
0	226	13.922367877635	19
0	251	15.219804829295	20
0	251	15.219804829295	21
0	276	16.694672350847	22
0	276	16.694672350847	23
0	301	18.346775625209	24
0	301	18.346775625209	25
0	326	20.25142336947	26
0	326	20.25142336947	27
0	351	22.117805695469	28
0	351	22.117805695469	29
0	376	23.992378657526	30
0	376	23.992378657526	31
0	401	25.722500683815	32
0	401	25.722500683815	33
0	426	27.603505242458	34
0	426	27.603505242458	35
0	451	28.866827620501	36
0	451	28.866827620501	37
0	476	30.322957392857	38
0	476	30.322957392857	39
0	501	31.600586101255	40
0	501	31.600586101255	41
0	526	33.322666762006	42
0	526	33.322666762006	43
0	551	35.252196080126	44
0	551	35.252196080126	45
0	576	36.744464319972	46
0	576	36.744464319972	47
0	601	38.241855687536	48
0	601	38.241855687536	49
0	626	39.653228102792	50
0	626	39.653228102792	51
0	651	40.742831135942	52
0	651	40.742831135942	53
0	676	42.267423751839	54
0	676	42.267423751839	55
0	701	43.855023388593	56
0	701	43.855023388593	57
0	726	45.330312833032	58
0	726	45.330312833032	59
0	751	46.787224254879	60
0	751	46.787224254879	61
0	776	47.79699068687	62
0	776	47.79699068687	63
0	801	49.425889126333	64
0	801	49.425889126333	65
0	826	50.962163663777	66
0	826	50.962163663777	67
0	851	52.214104654808	68
0	851	52.214104654808	69
0	876	53.854128809954	70
0	876	53.854128809954	71
0	901	55.560703517479	72
0	901	55.560703517479	73
0	926	56.681763394578	74
0	926	56.681763394578	75
0	951	58.430551647051	76
0	951	58.430551647051	77
0	976	59.455171603552	78
0	976	59.455171603552	79
0	1001	61.422966276138	80
0	1001	61.422966276138	81
0	1026	62.700739949318	82
0	1026	62.700739949318	83
0	1051	64.381254431634	84
0	1051	64.381254431634	85
0	1076	65.4057818319	86
0	1076	65.4057818319	87
0	1101	67.077738970127	88
0	1101	67.077738970127	89
0	1126	68.99727040723	90
0	1126	68.99727040723	91
0	1151	70.869056144106	92
0	1151	70.869056144106	93
0	1176	72.775410377263	94
0	1176	72.775410377263	95
0	1201	73.836488916148	96
0	1201	73.836488916148	97
0	1226	75.500354982522	98
0	1226	75.500354982522	99
0	1251	76.633794413489	100
0	1251	76.633794413489	101
0	1276	78.590727384044	102
0	1276	78.590727384044	103
0	1301	80.180422100313	104
0	1301	80.180422100313	105
0	1326	81.799604896763	106
0	1326	81.799604896763	107
0	1351	83.070856973603	108
0	1351	83.070856973603	109
0	1376	84.742651274735	110
0	1376	84.742651274735	111
0	1401	86.701793524744	112
0	1401	86.701793524744	113
0	1426	88.335208351333	114
0	1426	88.335208351333	115
0	1451	89.791617909987	116
0	1451	89.791617909987	117
0	1476	91.45921121615	118
0	1476	91.45921121615	119
0	1501	92.576591512496	120
0	1501	92.576591512496	121
0	1526	94.41295554217	122
0	1526	94.41295554217	123
0	1551	95.749057810596	124
0	1551	95.749057810596	125
0	1576	97.23194943376	126
0	1576	97.23194943376	127
0	1601	98.656612439855	128
0	1601	98.656612439855	129
0	1626	99.664080756792	130
0	1626	99.664080756792	131
0	1651	101.538480676088	132
0	1651	101.538480676088	133
0	1676	102.626728915918	134
0	1676	102.626728915918	135
0	1701	103.91961748114	136
0	1701	103.91961748114	137
0	1726	105.892529225519	138
0	1726	105.892529225519	139
0	1751	107.232160274016	140
0	1751	107.232160274016	141
0	1776	109.028557040572	142
0	1776	109.028557040572	143
0	1801	110.170063521789	144
0	1801	110.170063521789	145
0	1826	111.867337812513	146
0	1826	111.867337812513	147
0	1851	112.963788673824	148
0	1851	112.963788673824	149
0	1876	114.695422387759	150
0	1876	114.695422387759	151
0	1901	116.025689428051	152
0	1901	116.025689428051	153
0	1926	117.344606748859	154
0	1926	117.344606748859	155
0	1951	118.803576602677	156
0	1951	118.803576602677	157
0	1976	120.270696006093	158
0	1976	120.270696006093	159
0	2001	121.484531354235	160
0	2001	121.484531354235	161
0	2026	123.404803115252	162
0	2026	123.404803115252	163
0	2051	124.861506742734	164
0	2051	124.861506742734	165
0	2076	126.532268400613	166
0	2076	126.532268400613	167
0	2101	127.65956242134	168
0	2101	127.65956242134	169
0	2126	128.673427471967	170
0	2126	128.673427471967	171
0	2151	129.684782596847	172
0	2151	129.684782596847	173
0	2176	131.082770755591	174
0	2176	131.082770755591	175
0	2201	132.99605510019	176
0	2201	132.99605510019	177
0	2226	134.262339085185	178
0	2226	134.262339085185	179
0	2251	135.42602334156	180
0	2251	135.42602334156	181
0	2276	136.789237313516	182
0	2276	136.789237313516	183
0	2301	138.118888470189	184
0	2301	138.118888470189	185
0	2326	139.482370231145	186
0	2326	139.482370231145	187
0	2351	141.375077399968	188
0	2351	141.375077399968	189
0	2376	143.307157036693	190
0	2376	143.307157036693	191
0	2401	145.235133201194	192
0	2401	145.235133201194	193
0	2426	146.991000731087	194
0	2426	146.991000731087	195
0	2451	148.042008044741	196
0	2451	148.042008044741	197
0	2476	149.302596299521	198
0	2476	149.302596299521	199
0	2501	150.388390902973	200
0	2501	150.388390902973	201
0	2526	152.336834010047	202
0	2526	152.336834010047	203
0	2551	153.910443752849	204
0	2551	153.910443752849	205
0	2576	155.530497333578	206
0	2576	155.530497333578	207
0	2601	156.581550398686	208
0	2601	156.581550398686	209
0	2626	158.270013330349	210
0	2626	158.270013330349	211
0	2651	159.437449148468	212
0	2651	159.437449148468	213
0	2676	160.862301786508	214
0	2676	160.862301786508	215
0	2701	162.099824919676	216
0	2701	162.099824919676	217
0	2726	163.902558578256	218
0	2726	163.902558578256	219
0	2751	165.450814863046	220
0	2751	165.450814863046	221
0	2776	167.37830465807	222
0	2776	167.37830465807	223
0	2801	168.479412150182	224
0	2801	168.479412150182	225
0	2826	169.909647626182	226
0	2826	169.909647626182	227
0	2851	171.031733227273	228
0	2851	171.031733227273	229
0	2876	172.792012334879	230
0	2876	172.792012334879	231
0	2901	174.676777156613	232
0	2901	174.676777156613	233
0	2926	176.253433881871	234
0	2926	176.253433881871	235
0	2951	178.070887144966	236
0	2951	178.070887144966	237
0	2976	179.225016995178	238
0	2976	179.225016995178	239
0	3001	180.599430983265	240
0	3001	180.599430983265	241
0	3026	181.944945184126	242
0	3026	181.944945184126	243
0	3051	183.546222359951	244
0	3051	183.546222359951	245
0	3076	185.466769948214	246
0	3076	185.466769948214	247
0	3101	187.266635383324	248
0	3101	187.266635383324	249
0	3126	188.94775021829	250
0	3126	188.94775021829	251
0	3151	190.462230556489	252
0	3151	190.462230556489	253
0	3176	192.316367568758	254
0	3176	192.316367568758	255
0	3201	194.314894143802	256
0	3201	194.314894143802	257
0	3226	195.675528889366	258
0	3226	195.675528889366	259
0	3251	197.068651303726	260
0	3251	197.068651303726	261
0	3276	198.82003230423	262
0	3276	198.82003230423	263
0	3301	200.493042439998	264
0	3301	200.493042439998	265
0	3326	202.475450700692	266
0	3326	202.475450700692	267
0	3351	203.904260476896	268
0	3351	203.904260476896	269
0	3376	205.395640546767	270
0	3376	205.395640546767	271
0	3401	207.163106316313	272
0	3401	207.163106316313	273
0	3426	208.381889625531	274
0	3426	208.381889625531	275
0	3451	210.226967257526	276
0	3451	210.226967257526	277
0	3476	212.15281432968	278
0	3476	212.15281432968	279
0	3501	213.971236493284	280
0	3501	213.971236493284	281
0	3526	215.003955903774	282
0	3526	215.003955903774	283
0	3551	216.669915822646	284
0	3551	216.669915822646	285
0	3576	218.070407802085	286
0	3576	218.070407802085	287
0	3601	219.859445697474	288
0	3601	219.859445697474	289
0	3626	221.489682518257	290
0	3626	221.489682518257	291
0	3651	223.4479618518	292
0	3651	223.4479618518	293
0	3676	224.737115223505	294
0	3676	224.737115223505	295
0	3701	226.64620798089	296
0	3701	226.64620798089	297
0	3726	227.869925745608	298
0	3726	227.869925745608	299
0	3751	229.324515614038	300
0	3751	229.324515614038	301
0	3776	230.721783659732	302
0	3776	230.721783659732	303
0	3801	231.976071791336	304
0	3801	231.976071791336	305
0	3826	233.826476957262	306
0	3826	233.826476957262	307
0	3851	235.111651881211	308
0	3851	235.111651881211	309
0	3876	236.777972283386	310
0	3876	236.777972283386	311
0	3901	238.422369427126	312
0	3901	238.422369427126	313
1	4	0.142870607559	0
1	4	0.142870607559	1
1	4	0.142870607559	2
1	29	1.717856035382	3
1	29	1.717856035382	4
1	29	1.717856035382	5
1	54	3.65042416164	6
1	54	3.65042416164	7
1	54	3.65042416164	8
1	80	5.236186995842	9
1	80	5.236186995842	10
1	80	5.236186995842	11
1	104	7.178542391629	12
1	104	7.178542391629	13
1	104	7.178542391629	14
1	129	8.209097913075	15
1	129	8.209097913075	16
1	129	8.209097913075	17
1	162	9.384007757846	18
1	162	9.384007757846	19
1	162	9.384007757846	20
1	182	10.813295537375	21
1	182	10.813295537375	22
1	182	10.813295537375	23
1	205	12.374914559792	24
1	205	12.374914559792	25
1	205	12.374914559792	26
1	232	13.94917709968	27
1	232	13.94917709968	28
1	232	13.94917709968	29
1	254	15.236156106451	30
1	254	15.236156106451	31
1	254	15.236156106451	32
1	279	16.710318455858	33
1	279	16.710318455858	34
1	279	16.710318455858	35
1	304	18.357158454338	36
1	304	18.357158454338	37
1	304	18.357158454338	38
1	332	20.298522975389	39
1	332	20.298522975389	40
1	332	20.298522975389	41
1	358	22.156651138353	42
1	358	22.156651138353	43
1	358	22.156651138353	44
1	379	24.006117522485	45
1	379	24.006117522485	46
1	379	24.006117522485	47
1	411	25.769967629953	48
1	411	25.769967629953	49
1	411	25.769967629953	50
1	429	27.613713914644	51
1	429	27.613713914644	52
1	429	27.613713914644	53
1	454	28.883432651298	54
1	454	28.883432651298	55
1	454	28.883432651298	56
1	479	30.341795249417	57
1	479	30.341795249417	58
1	479	30.341795249417	59
1	504	31.610895364171	60
1	504	31.610895364171	61
1	504	31.610895364171	62
1	529	33.343750859548	63
1	529	33.343750859548	64
1	529	33.343750859548	65
1	555	35.274768450082	66
1	555	35.274768450082	67
1	555	35.274768450082	68
1	580	36.764666190852	69
1	580	36.764666190852	70
1	580	36.764666190852	71
1	604	38.25630718093	72
1	604	38.25630718093	73
1	604	38.25630718093	74
1	630	39.674376977011	75
1	630	39.674376977011	76
1	630	39.674376977011	77
1	654	40.758665373652	78
1	654	40.758665373652	79
1	654	40.758665373652	80
1	679	42.280609590318	81
1	679	42.280609590318	82
1	679	42.280609590318	83
1	705	43.880331872782	84
1	705	43.880331872782	85
1	705	43.880331872782	86
1	732	45.361687049936	87
1	732	45.361687049936	88
1	732	45.361687049936	89
1	755	46.800910084275	90
1	755	46.800910084275	91
1	755	46.800910084275	92
1	780	47.812072881411	93
1	780	47.812072881411	94
1	780	47.812072881411	95
1	805	49.447291915102	96
1	805	49.447291915102	97
1	805	49.447291915102	98
1	829	50.974663171943	99
1	829	50.974663171943	100
1	829	50.974663171943	101
1	855	52.228694934083	102
1	855	52.228694934083	103
1	855	52.228694934083	104
1	880	53.869487797907	105
1	880	53.869487797907	106
1	880	53.869487797907	107
1	905	55.573468244644	108
1	905	55.573468244644	109
1	905	55.573468244644	110
1	930	56.694478952495	111
1	930	56.694478952495	112
1	930	56.694478952495	113
1	955	58.442163072839	114
1	955	58.442163072839	115
1	955	58.442163072839	116
1	980	59.473087694498	117
1	980	59.473087694498	118
1	980	59.473087694498	119
1	1008	61.455491204839	120
1	1008	61.455491204839	121
1	1008	61.455491204839	122
1	1029	62.720478735233	123
1	1029	62.720478735233	124
1	1029	62.720478735233	125
1	1055	64.399420358522	126
1	1055	64.399420358522	127
1	1055	64.399420358522	128
1	1086	65.445513915295	129
1	1086	65.445513915295	130
1	1086	65.445513915295	131
1	1104	67.095557814358	132
1	1104	67.095557814358	133
1	1104	67.095557814358	134
1	1129	69.014256442899	135
1	1129	69.014256442899	136
1	1129	69.014256442899	137
1	1154	70.887733695535	138
1	1154	70.887733695535	139
1	1154	70.887733695535	140
1	1182	72.809241059995	141
1	1182	72.809241059995	142
1	1182	72.809241059995	143
1	1205	73.84995820498	144
1	1205	73.84995820498	145
1	1205	73.84995820498	146
1	1229	75.511373138942	147
1	1229	75.511373138942	148
1	1229	75.511373138942	149
1	1254	76.644998996167	150
1	1254	76.644998996167	151
1	1254	76.644998996167	152
1	1279	78.614407924258	153
1	1279	78.614407924258	154
1	1279	78.614407924258	155
1	1305	80.195241892409	156
1	1305	80.195241892409	157
1	1305	80.195241892409	158
1	1330	81.814776566034	159
1	1330	81.814776566034	160
1	1330	81.814776566034	161
1	1355	83.084773819002	162
1	1355	83.084773819002	163
1	1355	83.084773819002	164
1	1379	84.753741593371	165
1	1379	84.753741593371	166
1	1379	84.753741593371	167
1	1404	86.715466206419	168
1	1404	86.715466206419	169
1	1404	86.715466206419	170
1	1429	88.346873253272	171
1	1429	88.346873253272	172
1	1429	88.346873253272	173
1	1454	89.803758731934	174
1	1454	89.803758731934	175
1	1454	89.803758731934	176
1	1480	91.470952908361	177
1	1480	91.470952908361	178
1	1480	91.470952908361	179
1	1504	92.591957733326	180
1	1504	92.591957733326	181
1	1504	92.591957733326	182
1	1529	94.444214847869	183
1	1529	94.444214847869	184
1	1529	94.444214847869	185
1	1554	95.761214809009	186
1	1554	95.761214809009	187
1	1554	95.761214809009	188
1	1579	97.243088040333	189
1	1579	97.243088040333	190
1	1579	97.243088040333	191
1	1607	98.692840695074	192
1	1607	98.692840695074	193
1	1607	98.692840695074	194
1	1629	99.675273405492	195
1	1629	99.675273405492	196
1	1629	99.675273405492	197
1	1654	101.557699468671	198
1	1654	101.557699468671	199
1	1654	101.557699468671	200
1	1680	102.649283422633	201
1	1680	102.649283422633	202
1	1680	102.649283422633	203
1	1707	103.950198392917	204
1	1707	103.950198392917	205
1	1707	103.950198392917	206
1	1729	105.911697455892	207
1	1729	105.911697455892	208
1	1729	105.911697455892	209
1	1754	107.245258295362	210
1	1754	107.245258295362	211
1	1754	107.245258295362	212
1	1783	109.058652126739	213
1	1783	109.058652126739	214
1	1783	109.058652126739	215
1	1805	110.186287502032	216
1	1805	110.186287502032	217
1	1805	110.186287502032	218
1	1832	111.897249968918	219
1	1832	111.897249968918	220
1	1832	111.897249968918	221
1	1854	112.976586241848	222
1	1854	112.976586241848	223
1	1854	112.976586241848	224
1	1883	114.722236031711	225
1	1883	114.722236031711	226
1	1883	114.722236031711	227
1	1908	116.072415023903	228
1	1908	116.072415023903	229
1	1908	116.072415023903	230
1	1930	117.358497749443	231
1	1930	117.358497749443	232
1	1930	117.358497749443	233
1	1954	118.814362344947	234
1	1954	118.814362344947	235
1	1954	118.814362344947	236
1	1983	120.295446189239	237
1	1983	120.295446189239	238
1	1983	120.295446189239	239
1	2004	121.499092271892	240
1	2004	121.499092271892	241
1	2004	121.499092271892	242
1	2029	123.415014841571	243
1	2029	123.415014841571	244
1	2029	123.415014841571	245
1	2058	124.892404481611	246
1	2058	124.892404481611	247
1	2058	124.892404481611	248
1	2080	126.549729850583	249
1	2080	126.549729850583	250
1	2080	126.549729850583	251
1	2107	127.693827676931	252
1	2107	127.693827676931	253
1	2107	127.693827676931	254
1	2130	128.69058593644	255
1	2130	128.69058593644	256
1	2130	128.69058593644	257
1	2155	129.709055810494	258
1	2155	129.709055810494	259
1	2155	129.709055810494	260
1	2180	131.100206260464	261
1	2180	131.100206260464	262
1	2180	131.100206260464	263
1	2207	133.02252746022	264
1	2207	133.02252746022	265
1	2207	133.02252746022	266
1	2230	134.278161838497	267
1	2230	134.278161838497	268
1	2230	134.278161838497	269
1	2257	135.453382039368	270
1	2257	135.453382039368	271
1	2257	135.453382039368	272
1	2282	136.814928021989	273
1	2282	136.814928021989	274
1	2282	136.814928021989	275
1	2304	138.130624788927	276
1	2304	138.130624788927	277
1	2304	138.130624788927	278
1	2330	139.49346367628	279
1	2330	139.49346367628	280
1	2330	139.49346367628	281
1	2355	141.394283238199	282
1	2355	141.394283238199	283
1	2355	141.394283238199	284
1	2380	143.337320645882	285
1	2380	143.337320645882	286
1	2380	143.337320645882	287
1	2404	145.249332708307	288
1	2404	145.249332708307	289
1	2404	145.249332708307	290
1	2430	147.010866809183	291
1	2430	147.010866809183	292
1	2430	147.010866809183	293
1	2455	148.057923824378	294
1	2455	148.057923824378	295
1	2455	148.057923824378	296
1	2479	149.313243699468	297
1	2479	149.313243699468	298
1	2479	149.313243699468	299
1	2504	150.404853599172	300
1	2504	150.404853599172	301
1	2504	150.404853599172	302
1	2529	152.377855315789	303
1	2529	152.377855315789	304
1	2529	152.377855315789	305
1	2554	153.922120718335	306
1	2554	153.922120718335	307
1	2554	153.922120718335	308
1	2580	155.544521065691	309
1	2580	155.544521065691	310
1	2580	155.544521065691	311
1	2611	156.629170043944	312
1	2611	156.629170043944	313
1	2611	156.629170043944	314
1	2630	158.297267650596	315
1	2630	158.297267650596	316
1	2630	158.297267650596	317
1	2655	159.45801946751	318
1	2655	159.45801946751	319
1	2655	159.45801946751	320
1	2680	160.875466801763	321
1	2680	160.875466801763	322
1	2680	160.875466801763	323
1	2704	162.119336384812	324
1	2704	162.119336384812	325
1	2704	162.119336384812	326
1	2729	163.920397016542	327
1	2729	163.920397016542	328
1	2729	163.920397016542	329
1	2754	165.460952178996	330
1	2754	165.460952178996	331
1	2754	165.460952178996	332
1	2780	167.392137472124	333
1	2780	167.392137472124	334
1	2780	167.392137472124	335
1	2807	168.50833920327	336
1	2807	168.50833920327	337
1	2807	168.50833920327	338
1	2830	169.922653276303	339
1	2830	169.922653276303	340
1	2830	169.922653276303	341
1	2855	171.046915461751	342
1	2855	171.046915461751	343
1	2855	171.046915461751	344
1	2880	172.814118200853	345
1	2880	172.814118200853	346
1	2880	172.814118200853	347
1	2905	174.690570320284	348
1	2905	174.690570320284	349
1	2905	174.690570320284	350
1	2930	176.278089292353	351
1	2930	176.278089292353	352
1	2930	176.278089292353	353
1	2954	178.082544649324	354
1	2954	178.082544649324	355
1	2954	178.082544649324	356
1	2979	179.239383751924	357
1	2979	179.239383751924	358
1	2979	179.239383751924	359
1	3004	180.611500452598	360
1	3004	180.611500452598	361
1	3004	180.611500452598	362
1	3030	181.969726249033	363
1	3030	181.969726249033	364
1	3030	181.969726249033	365
1	3055	183.571034025801	366
1	3055	183.571034025801	367
1	3055	183.571034025801	368
1	3079	185.480494077958	369
1	3079	185.480494077958	370
1	3079	185.480494077958	371
1	3104	187.280820631443	372
1	3104	187.280820631443	373
1	3104	187.280820631443	374
1	3130	188.965665940364	375
1	3130	188.965665940364	376
1	3130	188.965665940364	377
1	3154	190.472630470526	378
1	3154	190.472630470526	379
1	3154	190.472630470526	380
1	3179	192.327778320777	381
1	3179	192.327778320777	382
1	3179	192.327778320777	383
1	3204	194.326877511424	384
1	3204	194.326877511424	385
1	3204	194.326877511424	386
1	3229	195.694437844162	387
1	3229	195.694437844162	388
1	3229	195.694437844162	389
1	3257	197.096733432822	390
1	3257	197.096733432822	391
1	3257	197.096733432822	392
1	3282	198.846217891315	393
1	3282	198.846217891315	394
1	3282	198.846217891315	395
1	3304	200.513746803012	396
1	3304	200.513746803012	397
1	3304	200.513746803012	398
1	3330	202.493551868497	399
1	3330	202.493551868497	400
1	3330	202.493551868497	401
1	3355	203.923139271548	402
1	3355	203.923139271548	403
1	3355	203.923139271548	404
1	3379	205.412914476878	405
1	3379	205.412914476878	406
1	3379	205.412914476878	407
1	3404	207.181109170989	408
1	3404	207.181109170989	409
1	3404	207.181109170989	410
1	3429	208.393571927091	411
1	3429	208.393571927091	412
1	3429	208.393571927091	413
1	3455	210.239719837826	414
1	3455	210.239719837826	415
1	3455	210.239719837826	416
1	3479	212.163653022104	417
1	3479	212.163653022104	418
1	3479	212.163653022104	419
1	3504	213.988418473433	420
1	3504	213.988418473433	421
1	3504	213.988418473433	422
1	3529	215.014835599539	423
1	3529	215.014835599539	424
1	3529	215.014835599539	425
1	3554	216.685427114216	426
1	3554	216.685427114216	427
1	3554	216.685427114216	428
1	3579	218.081965456415	429
1	3579	218.081965456415	430
1	3579	218.081965456415	431
1	3604	219.875544777229	432
1	3604	219.875544777229	433
1	3604	219.875544777229	434
1	3630	221.517070382714	435
1	3630	221.517070382714	436
1	3630	221.517070382714	437
1	3655	223.45991776479	438
1	3655	223.45991776479	439
1	3655	223.45991776479	440
1	3679	224.749189905339	441
1	3679	224.749189905339	442
1	3679	224.749189905339	443
1	3704	226.663970780075	444
1	3704	226.663970780075	445
1	3704	226.663970780075	446
1	3729	227.882277941533	447
1	3729	227.882277941533	448
1	3729	227.882277941533	449
1	3754	229.34359932377	450
1	3754	229.34359932377	451
1	3754	229.34359932377	452
1	3779	230.742748347979	453
1	3779	230.742748347979	454
1	3779	230.742748347979	455
1	3805	231.989600400897	456
1	3805	231.989600400897	457
1	3805	231.989600400897	458
1	3830	233.840876397908	459
1	3830	233.840876397908	460
1	3830	233.840876397908	461
1	3855	235.134047299544	462
1	3855	235.134047299544	463
1	3855	235.134047299544	464
1	3879	236.788595075247	465
1	3879	236.788595075247	466
1	3879	236.788595075247	467
1	3904	238.438914376009	468
1	3904	238.438914376009	469
1	3904	238.438914376009	470
2	5	0.143790018797	0
2	5	0.143790018797	1
2	30	1.718030792088	2
2	30	1.718030792088	3
2	55	3.656929461856	4
2	55	3.656929461856	5
2	79	5.229190791246	6
2	79	5.229190791246	7
2	113	7.200413147998	8
2	113	7.200413147998	9
2	130	8.211509246687	10
2	130	8.211509246687	11
2	154	9.349546251237	12
2	154	9.349546251237	13
2	179	10.790638580229	14
2	179	10.790638580229	15
2	204	12.36615294064	16
2	204	12.36615294064	17
2	229	13.937418065113	18
2	229	13.937418065113	19
2	255	15.242395264468	20
2	255	15.242395264468	21
2	284	16.727358690774	22
2	284	16.727358690774	23
2	305	18.363874804481	24
2	305	18.363874804481	25
2	329	20.280789141845	26
2	329	20.280789141845	27
2	354	22.137177082646	28
2	354	22.137177082646	29
2	380	24.007457308753	30
2	380	24.007457308753	31
2	404	25.742115079531	32
2	404	25.742115079531	33
2	433	27.627709077014	34
2	433	27.627709077014	35
2	455	28.892374249879	36
2	455	28.892374249879	37
2	483	30.35289778487	38
2	483	30.35289778487	39
2	509	31.624329531399	40
2	509	31.624329531399	41
2	530	33.348045049151	42
2	530	33.348045049151	43
2	554	35.268854504992	44
2	554	35.268854504992	45
2	579	36.75906223315	46
2	579	36.75906223315	47
2	605	38.256955595874	48
2	605	38.256955595874	49
2	629	39.666043343017	50
2	629	39.666043343017	51
2	659	40.771979558518	52
2	659	40.771979558518	53
2	680	42.282057652114	54
2	680	42.282057652114	55
2	704	43.873152372205	56
2	704	43.873152372205	57
2	729	45.346448875129	58
2	729	45.346448875129	59
2	754	46.799875185893	60
2	754	46.799875185893	61
2	779	47.807638343798	62
2	779	47.807638343798	63
2	804	49.445284146192	64
2	804	49.445284146192	65
2	830	50.975083124494	66
2	830	50.975083124494	67
2	854	52.227855274239	68
2	854	52.227855274239	69
2	879	53.86860020898	70
2	879	53.86860020898	71
2	904	55.573294640038	72
2	904	55.573294640038	73
2	929	56.693649041821	74
2	929	56.693649041821	75
2	954	58.441965578178	76
2	954	58.441965578178	77
2	979	59.468385006581	78
2	979	59.468385006581	79
2	1004	61.433235082333	80
2	1004	61.433235082333	81
2	1030	62.723136930124	82
2	1030	62.723136930124	83
2	1054	64.395735311318	84
2	1054	64.395735311318	85
2	1079	65.415808900646	86
2	1079	65.415808900646	87
2	1121	67.135002922096	88
2	1121	67.135002922096	89
2	1134	69.032825584397	90
2	1134	69.032825584397	91
2	1155	70.888167602187	92
2	1155	70.888167602187	93
2	1179	72.798876650148	94
2	1179	72.798876650148	95
2	1204	73.848724906731	96
2	1204	73.848724906731	97
2	1230	75.514561659246	98
2	1230	75.514561659246	99
2	1255	76.646972106903	100
2	1255	76.646972106903	101
2	1280	78.619576030186	102
2	1280	78.619576030186	103
2	1304	80.191437588019	104
2	1304	80.191437588019	105
2	1329	81.814710022522	106
2	1329	81.814710022522	107
2	1354	83.084658163916	108
2	1354	83.084658163916	109
2	1384	84.772837912334	110
2	1384	84.772837912334	111
2	1405	86.719499835352	112
2	1405	86.719499835352	113
2	1430	88.347434739853	114
2	1430	88.347434739853	115
2	1460	89.826639489812	116
2	1460	89.826639489812	117
2	1479	91.469690588146	118
2	1479	91.469690588146	119
2	1505	92.591963349867	120
2	1505	92.591963349867	121
2	1530	94.451964632582	122
2	1530	94.451964632582	123
2	1555	95.761359068278	124
2	1555	95.761359068278	125
2	1580	97.250347768774	126
2	1580	97.250347768774	127
2	1604	98.678426493841	128
2	1604	98.678426493841	129
2	1630	99.676468842386	130
2	1630	99.676468842386	131
2	1655	101.561011457028	132
2	1655	101.561011457028	133
2	1679	102.642143640855	134
2	1679	102.642143640855	135
2	1704	103.931321254727	136
2	1704	103.931321254727	137
2	1741	105.935551065044	138
2	1741	105.935551065044	139
2	1755	107.245702260157	140
2	1755	107.245702260157	141
2	1779	109.044378851103	142
2	1779	109.044378851103	143
2	1804	110.183137194517	144
2	1804	110.183137194517	145
2	1829	111.885696588188	146
2	1829	111.885696588188	147
2	1863	113.007024295088	148
2	1863	113.007024295088	149
2	1879	114.706935082209	150
2	1879	114.706935082209	151
2	1904	116.057906900076	152
2	1904	116.057906900076	153
2	1929	117.35841204596	154
2	1929	117.35841204596	155
2	1958	118.831228220473	156
2	1958	118.831228220473	157
2	1979	120.280818464481	158
2	1979	120.280818464481	159
2	2013	121.521244600939	160
2	2013	121.521244600939	161
2	2030	123.420106861901	162
2	2030	123.420106861901	163
2	2054	124.874151388353	164
2	2054	124.874151388353	165
2	2079	126.54379778298	166
2	2079	126.54379778298	167
2	2104	127.674902654747	168
2	2104	127.674902654747	169
2	2129	128.684297123744	170
2	2129	128.684297123744	171
2	2154	129.703059615065	172
2	2154	129.703059615065	173
2	2179	131.097143794151	174
2	2179	131.097143794151	175
2	2204	133.007841090621	176
2	2204	133.007841090621	177
2	2229	134.275388045128	178
2	2229	134.275388045128	179
2	2254	135.439245045228	180
2	2254	135.439245045228	181
2	2279	136.80038206081	182
2	2279	136.80038206081	183
2	2305	138.13923736449	184
2	2305	138.13923736449	185
2	2329	139.49255285214	186
2	2329	139.49255285214	187
2	2354	141.394120957903	188
2	2354	141.394120957903	189
2	2379	143.334093428315	190
2	2379	143.334093428315	191
2	2405	145.254387762757	192
2	2405	145.254387762757	193
2	2429	147.007981385238	194
2	2429	147.007981385238	195
2	2454	148.053002903162	196
2	2454	148.053002903162	197
2	2480	149.315855214842	198
2	2480	149.315855214842	199
2	2517	150.443518756132	200
2	2517	150.443518756132	201
2	2530	152.385603616082	202
2	2530	152.385603616082	203
2	2555	153.926257083143	204
2	2555	153.926257083143	205
2	2579	155.544358757832	206
2	2579	155.544358757832	207
2	2604	156.592909593684	208
2	2604	156.592909593684	209
2	2629	158.292070694898	210
2	2629	158.292070694898	211
2	2654	159.455493196213	212
2	2654	159.455493196213	213
2	2679	160.875286644963	214
2	2679	160.875286644963	215
2	2705	162.123920057265	216
2	2705	162.123920057265	217
2	2730	163.926015190131	218
2	2730	163.926015190131	219
2	2755	165.467362235343	220
2	2755	165.467362235343	221
2	2779	167.390145594817	222
2	2779	167.390145594817	223
2	2804	168.489637997069	224
2	2804	168.489637997069	225
2	2829	169.920267209622	226
2	2829	169.920267209622	227
2	2854	171.042406582036	228
2	2854	171.042406582036	229
2	2879	172.808739604112	230
2	2879	172.808739604112	231
2	2904	174.687232025195	232
2	2904	174.687232025195	233
2	2929	176.274762657804	234
2	2929	176.274762657804	235
2	2955	178.087423144544	236
2	2955	178.087423144544	237
2	2980	179.239769453707	238
2	2980	179.239769453707	239
2	3005	180.614387962326	240
2	3005	180.614387962326	241
2	3029	181.960273956086	242
2	3029	181.960273956086	243
2	3054	183.57100894879	244
2	3054	183.57100894879	245
2	3080	185.483670164635	246
2	3080	185.483670164635	247
2	3109	187.295284235333	248
2	3109	187.295284235333	249
2	3129	188.961906899338	250
2	3129	188.961906899338	251
2	3158	190.486145554561	252
2	3158	190.486145554561	253
2	3184	192.339851667939	254
2	3184	192.339851667939	255
2	3205	194.331861031266	256
2	3205	194.331861031266	257
2	3234	195.706862991154	258
2	3234	195.706862991154	259
2	3254	197.086460543543	260
2	3254	197.086460543543	261
2	3279	198.832081816177	262
2	3279	198.832081816177	263
2	3305	200.517208773383	264
2	3305	200.517208773383	265
2	3329	202.490845248734	266
2	3329	202.490845248734	267
2	3354	203.92277596999	268
2	3354	203.92277596999	269
2	3392	205.446342811762	270
2	3392	205.446342811762	271
2	3405	207.185759575347	272
2	3405	207.185759575347	273
2	3430	208.394172999133	274
2	3430	208.394172999133	275
2	3454	210.237434789315	276
2	3454	210.237434789315	277
2	3480	212.172007978104	278
2	3480	212.172007978104	279
2	3505	213.98846450495	280
2	3505	213.98846450495	281
2	3537	215.050411547644	282
2	3537	215.050411547644	283
2	3555	216.687951860474	284
2	3555	216.687951860474	285
2	3583	218.098734660315	286
2	3583	218.098734660315	287
2	3605	219.878907825448	288
2	3605	219.878907825448	289
2	3629	221.50904086919	290
2	3629	221.50904086919	291
2	3654	223.458999668428	292
2	3654	223.458999668428	293
2	3680	224.759079516658	294
2	3680	224.759079516658	295
2	3718	226.702027270521	296
2	3718	226.702027270521	297
2	3730	227.884194568925	298
2	3730	227.884194568925	299
2	3759	229.361406435481	300
2	3759	229.361406435481	301
2	3780	230.748751372404	302
2	3780	230.748751372404	303
2	3804	231.989255066284	304
2	3804	231.989255066284	305
2	3829	233.840256421279	306
2	3829	233.840256421279	307
2	3854	235.129703497577	308
2	3854	235.129703497577	309
2	3880	236.797511242459	310
2	3880	236.797511242459	311
2	3905	238.441336470436	312
2	3905	238.441336470436	313
3	11	0.158381092426	0
3	11	0.158381092426	1
3	11	0.158381092426	2
3	36	1.732448516755	3
3	36	1.732448516755	4
3	36	1.732448516755	5
3	60	3.665779818842	6
3	60	3.665779818842	7
3	60	3.665779818842	8
3	86	5.262454301863	9
3	86	5.262454301863	10
3	86	5.262454301863	11
3	109	7.190885406817	12
3	109	7.190885406817	13
3	109	7.190885406817	14
3	134	8.219234558859	15
3	134	8.219234558859	16
3	134	8.219234558859	17
3	157	9.360810137601	18
3	157	9.360810137601	19
3	157	9.360810137601	20
3	183	10.819111856739	21
3	183	10.819111856739	22
3	183	10.819111856739	23
3	208	12.379013150365	24
3	208	12.379013150365	25
3	208	12.379013150365	26
3	233	13.950292169874	27
3	233	13.950292169874	28
3	233	13.950292169874	29
3	259	15.249582102698	30
3	259	15.249582102698	31
3	259	15.249582102698	32
3	283	16.721341662007	33
3	283	16.721341662007	34
3	283	16.721341662007	35
3	309	18.368480291434	36
3	309	18.368480291434	37
3	309	18.368480291434	38
3	333	20.305267082665	39
3	333	20.305267082665	40
3	333	20.305267082665	41
3	357	22.147500650692	42
3	357	22.147500650692	43
3	357	22.147500650692	44
3	387	24.018633508616	45
3	387	24.018633508616	46
3	387	24.018633508616	47
3	407	25.752364963064	48
3	407	25.752364963064	49
3	407	25.752364963064	50
3	440	27.647192352258	51
3	440	27.647192352258	52
3	440	27.647192352258	53
3	465	28.906557731228	54
3	465	28.906557731228	55
3	465	28.906557731228	56
3	487	30.363029854412	57
3	487	30.363029854412	58
3	487	30.363029854412	59
3	519	31.644300283778	60
3	519	31.644300283778	61
3	519	31.644300283778	62
3	540	33.365907764282	63
3	540	33.365907764282	64
3	540	33.365907764282	65
3	561	35.299592119623	66
3	561	35.299592119623	67
3	561	35.299592119623	68
3	583	36.77465230985	69
3	583	36.77465230985	70
3	583	36.77465230985	71
3	612	38.271536857467	72
3	612	38.271536857467	73
3	612	38.271536857467	74
3	637	39.68999203393	75
3	637	39.68999203393	76
3	637	39.68999203393	77
3	660	40.773444553527	78
3	660	40.773444553527	79
3	660	40.773444553527	80
3	686	42.30571420633	81
3	686	42.30571420633	82
3	686	42.30571420633	83
3	711	43.890834905624	84
3	711	43.890834905624	85
3	711	43.890834905624	86
3	737	45.377415237864	87
3	737	45.377415237864	88
3	737	45.377415237864	89
3	762	46.81881519992	90
3	762	46.81881519992	91
3	762	46.81881519992	92
3	786	47.823569159771	93
3	786	47.823569159771	94
3	786	47.823569159771	95
3	816	49.475647088065	96
3	816	49.475647088065	97
3	816	49.475647088065	98
3	836	50.989382852821	99
3	836	50.989382852821	100
3	836	50.989382852821	101
3	861	52.241257646435	102
3	861	52.241257646435	103
3	861	52.241257646435	104
3	886	53.883112596965	105
3	886	53.883112596965	106
3	886	53.883112596965	107
3	916	55.61344432276	108
3	916	55.61344432276	109
3	916	55.61344432276	110
3	936	56.707162254636	111
3	936	56.707162254636	112
3	936	56.707162254636	113
3	962	58.457977124642	114
3	962	58.457977124642	115
3	962	58.457977124642	116
3	983	59.48137853661	117
3	983	59.48137853661	118
3	983	59.48137853661	119
3	1007	61.447292345772	120
3	1007	61.447292345772	121
3	1007	61.447292345772	122
3	1037	62.741783307216	123
3	1037	62.741783307216	124
3	1037	62.741783307216	125
3	1061	64.410943099967	126
3	1061	64.410943099967	127
3	1061	64.410943099967	128
3	1082	65.431876024738	129
3	1082	65.431876024738	130
3	1082	65.431876024738	131
3	1112	67.117398091721	132
3	1112	67.117398091721	133
3	1112	67.117398091721	134
3	1133	69.025545229359	135
3	1133	69.025545229359	136
3	1133	69.025545229359	137
3	1167	70.921579848967	138
3	1167	70.921579848967	139
3	1167	70.921579848967	140
3	1183	72.81095368301	141
3	1183	72.81095368301	142
3	1183	72.81095368301	143
3	1212	73.868070710894	144
3	1212	73.868070710894	145
3	1212	73.868070710894	146
3	1240	75.538617057797	147
3	1240	75.538617057797	148
3	1240	75.538617057797	149
3	1260	76.656596993971	150
3	1260	76.656596993971	151
3	1260	76.656596993971	152
3	1286	78.633476555331	153
3	1286	78.633476555331	154
3	1286	78.633476555331	155
3	1312	80.221068820915	156
3	1312	80.221068820915	157
3	1312	80.221068820915	158
3	1336	81.82603213852	159
3	1336	81.82603213852	160
3	1336	81.82603213852	161
3	1362	83.099850701165	162
3	1362	83.099850701165	163
3	1362	83.099850701165	164
3	1383	84.76375367639	165
3	1383	84.76375367639	166
3	1383	84.76375367639	167
3	1410	86.727968739223	168
3	1410	86.727968739223	169
3	1410	86.727968739223	170
3	1437	88.362440961386	171
3	1437	88.362440961386	172
3	1437	88.362440961386	173
3	1458	89.818292866117	174
3	1458	89.818292866117	175
3	1458	89.818292866117	176
3	1487	91.493427780793	177
3	1487	91.493427780793	178
3	1487	91.493427780793	179
3	1511	92.605066653957	180
3	1511	92.605066653957	181
3	1511	92.605066653957	182
3	1534	94.45939513844	183
3	1534	94.45939513844	184
3	1534	94.45939513844	185
3	1566	95.789808874733	186
3	1566	95.789808874733	187
3	1566	95.789808874733	188
3	1584	97.256429994483	189
3	1584	97.256429994483	190
3	1584	97.256429994483	191
3	1611	98.705000439048	192
3	1611	98.705000439048	193
3	1611	98.705000439048	194
3	1637	99.694723585398	195
3	1637	99.694723585398	196
3	1637	99.694723585398	197
3	1659	101.569432843883	198
3	1659	101.569432843883	199
3	1659	101.569432843883	200
3	1687	102.66956178107	201
3	1687	102.66956178107	202
3	1687	102.66956178107	203
3	1712	103.966517156317	204
3	1712	103.966517156317	205
3	1712	103.966517156317	206
3	1734	105.924622736621	207
3	1734	105.924622736621	208
3	1734	105.924622736621	209
3	1762	107.26841643768	210
3	1762	107.26841643768	211
3	1762	107.26841643768	212
3	1782	109.058313675073	213
3	1782	109.058313675073	214
3	1782	109.058313675073	215
3	1815	110.214014097148	216
3	1815	110.214014097148	217
3	1815	110.214014097148	218
3	1833	111.899354936579	219
3	1833	111.899354936579	220
3	1833	111.899354936579	221
3	1858	112.989030810774	222
3	1858	112.989030810774	223
3	1858	112.989030810774	224
3	1882	114.721207558372	225
3	1882	114.721207558372	226
3	1882	114.721207558372	227
3	1907	116.069888913282	228
3	1907	116.069888913282	229
3	1907	116.069888913282	230
3	1937	117.375169069118	231
3	1937	117.375169069118	232
3	1937	117.375169069118	233
3	1959	118.833304344849	234
3	1959	118.833304344849	235
3	1959	118.833304344849	236
3	1982	120.2914478093	237
3	1982	120.2914478093	238
3	1982	120.2914478093	239
3	2008	121.509541988571	240
3	2008	121.509541988571	241
3	2008	121.509541988571	242
3	2047	123.487289163251	243
3	2047	123.487289163251	244
3	2047	123.487289163251	245
3	2057	124.885536606774	246
3	2057	124.885536606774	247
3	2057	124.885536606774	248
3	2086	126.559825922024	249
3	2086	126.559825922024	250
3	2086	126.559825922024	251
3	2108	127.702259339242	252
3	2108	127.702259339242	253
3	2108	127.702259339242	254
3	2137	128.717817682595	255
3	2137	128.717817682595	256
3	2137	128.717817682595	257
3	2161	129.720413437489	258
3	2161	129.720413437489	259
3	2161	129.720413437489	260
3	2195	131.143269139583	261
3	2195	131.143269139583	262
3	2195	131.143269139583	263
3	2217	133.059910856824	264
3	2217	133.059910856824	265
3	2217	133.059910856824	266
3	2244	134.323625300865	267
3	2244	134.323625300865	268
3	2244	134.323625300865	269
3	2258	135.457996361084	270
3	2258	135.457996361084	271
3	2258	135.457996361084	272
3	2286	136.825844539246	273
3	2286	136.825844539246	274
3	2286	136.825844539246	275
3	2311	138.156731956115	276
3	2311	138.156731956115	277
3	2311	138.156731956115	278
3	2337	139.517070037375	279
3	2337	139.517070037375	280
3	2337	139.517070037375	281
3	2361	141.405577557885	282
3	2361	141.405577557885	283
3	2361	141.405577557885	284
3	2387	143.355277207783	285
3	2387	143.355277207783	286
3	2387	143.355277207783	287
3	2412	145.269917006391	288
3	2412	145.269917006391	289
3	2412	145.269917006391	290
3	2440	147.039679104648	291
3	2440	147.039679104648	292
3	2440	147.039679104648	293
3	2462	148.071357193137	294
3	2462	148.071357193137	295
3	2462	148.071357193137	296
3	2487	149.333637586359	297
3	2487	149.333637586359	298
3	2487	149.333637586359	299
3	2509	150.423974494204	300
3	2509	150.423974494204	301
3	2509	150.423974494204	302
3	2537	152.398167257596	303
3	2537	152.398167257596	304
3	2537	152.398167257596	305
3	2562	153.940080191025	306
3	2562	153.940080191025	307
3	2562	153.940080191025	308
3	2586	155.558487906588	309
3	2586	155.558487906588	310
3	2586	155.558487906588	311
3	2607	156.614226374362	312
3	2607	156.614226374362	313
3	2607	156.614226374362	314
3	2637	158.316336578212	315
3	2637	158.316336578212	316
3	2637	158.316336578212	317
3	2666	159.489944318174	318
3	2666	159.489944318174	319
3	2666	159.489944318174	320
3	2686	160.88556116094	321
3	2686	160.88556116094	322
3	2686	160.88556116094	323
3	2712	162.137954175702	324
3	2712	162.137954175702	325
3	2712	162.137954175702	326
3	2736	163.945332554644	327
3	2736	163.945332554644	328
3	2736	163.945332554644	329
3	2759	165.47415830557	330
3	2759	165.47415830557	331
3	2759	165.47415830557	332
3	2786	167.416819385234	333
3	2786	167.416819385234	334
3	2786	167.416819385234	335
3	2822	168.546065178585	336
3	2822	168.546065178585	337
3	2822	168.546065178585	338
3	2847	170.018574872674	339
3	2847	170.018574872674	340
3	2847	170.018574872674	341
3	2866	171.081266882965	342
3	2866	171.081266882965	343
3	2866	171.081266882965	344
3	2887	172.833507578905	345
3	2887	172.833507578905	346
3	2887	172.833507578905	347
3	2908	174.700400403195	348
3	2908	174.700400403195	349
3	2908	174.700400403195	350
3	2941	176.319965945962	351
3	2941	176.319965945962	352
3	2941	176.319965945962	353
3	2966	178.110292277699	354
3	2966	178.110292277699	355
3	2966	178.110292277699	356
3	2997	179.27541975783	357
3	2997	179.27541975783	358
3	2997	179.27541975783	359
3	3015	180.648038735702	360
3	3015	180.648038735702	361
3	3015	180.648038735702	362
3	3033	181.97619316962	363
3	3033	181.97619316962	364
3	3033	181.97619316962	365
3	3061	183.606669121212	366
3	3061	183.606669121212	367
3	3061	183.606669121212	368
3	3087	185.500822237622	369
3	3087	185.500822237622	370
3	3087	185.500822237622	371
3	3108	187.292184544933	372
3	3108	187.292184544933	373
3	3108	187.292184544933	374
3	3133	188.97559810282	375
3	3133	188.97559810282	376
3	3133	188.97559810282	377
3	3162	190.49731806132	378
3	3162	190.49731806132	379
3	3162	190.49731806132	380
3	3183	192.339322211187	381
3	3183	192.339322211187	382
3	3183	192.339322211187	383
3	3222	194.383603112845	384
3	3222	194.383603112845	385
3	3222	194.383603112845	386
3	3242	195.720058842411	387
3	3242	195.720058842411	388
3	3242	195.720058842411	389
3	3261	197.111513072523	390
3	3261	197.111513072523	391
3	3261	197.111513072523	392
3	3283	198.849824182574	393
3	3283	198.849824182574	394
3	3283	198.849824182574	395
3	3312	200.5348847686	396
3	3312	200.5348847686	397
3	3312	200.5348847686	398
3	3336	202.511300616066	399
3	3336	202.511300616066	400
3	3336	202.511300616066	401
3	3361	203.938419251047	402
3	3361	203.938419251047	403
3	3361	203.938419251047	404
3	3383	205.42379413153	405
3	3383	205.42379413153	406
3	3383	205.42379413153	407
3	3409	207.194822641569	408
3	3409	207.194822641569	409
3	3409	207.194822641569	410
3	3436	208.410976597159	411
3	3436	208.410976597159	412
3	3436	208.410976597159	413
3	3462	210.254003971001	414
3	3462	210.254003971001	415
3	3462	210.254003971001	416
3	3484	212.173732532595	417
3	3484	212.173732532595	418
3	3484	212.173732532595	419
3	3511	214.000095862531	420
3	3511	214.000095862531	421
3	3511	214.000095862531	422
3	3533	215.036189232921	423
3	3533	215.036189232921	424
3	3533	215.036189232921	425
3	3562	216.714036312121	426
3	3562	216.714036312121	427
3	3562	216.714036312121	428
3	3586	218.110353434396	429
3	3586	218.110353434396	430
3	3586	218.110353434396	431
3	3609	219.885703411211	432
3	3609	219.885703411211	433
3	3609	219.885703411211	434
3	3641	221.555811572763	435
3	3641	221.555811572763	436
3	3641	221.555811572763	437
3	3661	223.475606480997	438
3	3661	223.475606480997	439
3	3661	223.475606480997	440
3	3690	224.775774420938	441
3	3690	224.775774420938	442
3	3690	224.775774420938	443
3	3717	226.70058144874	444
3	3717	226.70058144874	445
3	3717	226.70058144874	446
3	3736	227.89833356027	447
3	3736	227.89833356027	448
3	3736	227.89833356027	449
3	3758	229.356148266835	450
3	3758	229.356148266835	451
3	3758	229.356148266835	452
3	3784	230.752787022922	453
3	3784	230.752787022922	454
3	3784	230.752787022922	455
3	3811	232.007227231194	456
3	3811	232.007227231194	457
3	3811	232.007227231194	458
3	3844	233.876769676018	459
3	3844	233.876769676018	460
3	3844	233.876769676018	461
3	3862	235.145656457335	462
3	3862	235.145656457335	463
3	3862	235.145656457335	464
3	3885	236.805476270691	465
3	3885	236.805476270691	466
3	3885	236.805476270691	467
3	3909	238.450265331015	468
3	3909	238.450265331015	469
3	3909	238.450265331015	470
4	12	0.163252200566	0
4	12	0.163252200566	1
4	12	0.163252200566	2
4	44	1.759357734669	3
4	44	1.759357734669	4
4	44	1.759357734669	5
4	59	3.663496965162	6
4	59	3.663496965162	7
4	59	3.663496965162	8
4	91	5.281189132687	9
4	91	5.281189132687	10
4	91	5.281189132687	11
4	108	7.190301527083	12
4	108	7.190301527083	13
4	108	7.190301527083	14
4	137	8.228848932417	15
4	137	8.228848932417	16
4	137	8.228848932417	17
4	166	9.386821955374	18
4	166	9.386821955374	19
4	166	9.386821955374	20
4	191	10.84170836209	21
4	191	10.84170836209	22
4	191	10.84170836209	23
4	216	12.3938804685	24
4	216	12.3938804685	25
4	216	12.3938804685	26
4	244	13.992820804211	27
4	244	13.992820804211	28
4	244	13.992820804211	29
4	262	15.255779857009	30
4	262	15.255779857009	31
4	262	15.255779857009	32
4	294	16.761696553463	33
4	294	16.761696553463	34
4	294	16.761696553463	35
4	316	18.385997743204	36
4	316	18.385997743204	37
4	316	18.385997743204	38
4	341	20.322385888909	39
4	341	20.322385888909	40
4	341	20.322385888909	41
4	366	22.169367819056	42
4	366	22.169367819056	43
4	366	22.169367819056	44
4	386	24.018586115173	45
4	386	24.018586115173	46
4	386	24.018586115173	47
4	419	25.787658827964	48
4	419	25.787658827964	49
4	419	25.787658827964	50
4	434	27.634092415399	51
4	434	27.634092415399	52
4	434	27.634092415399	53
4	459	28.896362165883	54
4	459	28.896362165883	55
4	459	28.896362165883	56
4	484	30.355037240552	57
4	484	30.355037240552	58
4	484	30.355037240552	59
4	508	31.621766450004	60
4	508	31.621766450004	61
4	508	31.621766450004	62
4	534	33.355755281499	63
4	534	33.355755281499	64
4	534	33.355755281499	65
4	562	35.303669467063	66
4	562	35.303669467063	67
4	562	35.303669467063	68
4	587	36.779793337278	69
4	587	36.779793337278	70
4	587	36.779793337278	71
4	611	38.268949885571	72
4	611	38.268949885571	73
4	611	38.268949885571	74
4	636	39.689141762837	75
4	636	39.689141762837	76
4	636	39.689141762837	77
4	658	40.770663929031	78
4	658	40.770663929031	79
4	658	40.770663929031	80
4	690	42.316534076406	81
4	690	42.316534076406	82
4	690	42.316534076406	83
4	712	43.893583581487	84
4	712	43.893583581487	85
4	712	43.893583581487	86
4	736	45.377243639068	87
4	736	45.377243639068	88
4	736	45.377243639068	89
4	761	46.817020659888	90
4	761	46.817020659888	91
4	761	46.817020659888	92
4	791	47.83563006655	93
4	791	47.83563006655	94
4	791	47.83563006655	95
4	811	49.461247571106	96
4	811	49.461247571106	97
4	811	49.461247571106	98
4	837	50.991416730645	99
4	837	50.991416730645	100
4	837	50.991416730645	101
4	862	52.249556967195	102
4	862	52.249556967195	103
4	862	52.249556967195	104
4	887	53.892907995319	105
4	887	53.892907995319	106
4	887	53.892907995319	107
4	911	55.595172601944	108
4	911	55.595172601944	109
4	911	55.595172601944	110
4	937	56.708815601049	111
4	937	56.708815601049	112
4	937	56.708815601049	113
4	961	58.455627406114	114
4	961	58.455627406114	115
4	961	58.455627406114	116
4	990	59.491760614686	117
4	990	59.491760614686	118
4	990	59.491760614686	119
4	1015	61.468416710851	120
4	1015	61.468416710851	121
4	1015	61.468416710851	122
4	1036	62.740668267044	123
4	1036	62.740668267044	124
4	1036	62.740668267044	125
4	1062	64.413615151757	126
4	1062	64.413615151757	127
4	1062	64.413615151757	128
4	1091	65.4665186006	129
4	1091	65.4665186006	130
4	1091	65.4665186006	131
4	1108	67.106510659187	132
4	1108	67.106510659187	133
4	1108	67.106510659187	134
4	1138	69.035672598134	135
4	1138	69.035672598134	136
4	1138	69.035672598134	137
4	1161	70.8994799735	138
4	1161	70.8994799735	139
4	1161	70.8994799735	140
4	1191	72.826643581909	141
4	1191	72.826643581909	142
4	1191	72.826643581909	143
4	1211	73.863298955811	144
4	1211	73.863298955811	145
4	1211	73.863298955811	146
4	1236	75.526527614442	147
4	1236	75.526527614442	148
4	1236	75.526527614442	149
4	1259	76.655645832218	150
4	1259	76.655645832218	151
4	1259	76.655645832218	152
4	1290	78.646645752416	153
4	1290	78.646645752416	154
4	1290	78.646645752416	155
4	1311	80.21160239712	156
4	1311	80.21160239712	157
4	1311	80.21160239712	158
4	1337	81.829879280012	159
4	1337	81.829879280012	160
4	1337	81.829879280012	161
4	1361	83.098645793674	162
4	1361	83.098645793674	163
4	1361	83.098645793674	164
4	1391	84.791422593948	165
4	1391	84.791422593948	166
4	1391	84.791422593948	167
4	1409	86.726519967825	168
4	1409	86.726519967825	169
4	1409	86.726519967825	170
4	1436	88.3604642101	171
4	1436	88.3604642101	172
4	1436	88.3604642101	173
4	1459	89.820711489744	174
4	1459	89.820711489744	175
4	1459	89.820711489744	176
4	1486	91.48960439895	177
4	1486	91.48960439895	178
4	1486	91.48960439895	179
4	1516	92.622945917612	180
4	1516	92.622945917612	181
4	1516	92.622945917612	182
4	1541	94.476785719285	183
4	1541	94.476785719285	184
4	1541	94.476785719285	185
4	1561	95.772712261092	186
4	1561	95.772712261092	187
4	1561	95.772712261092	188
4	1594	97.280468273286	189
4	1594	97.280468273286	190
4	1594	97.280468273286	191
4	1615	98.733704666463	192
4	1615	98.733704666463	193
4	1615	98.733704666463	194
4	1636	99.689856151123	195
4	1636	99.689856151123	196
4	1636	99.689856151123	197
4	1662	101.577006204237	198
4	1662	101.577006204237	199
4	1662	101.577006204237	200
4	1686	102.667178188581	201
4	1686	102.667178188581	202
4	1686	102.667178188581	203
4	1711	103.962146453882	204
4	1711	103.962146453882	205
4	1711	103.962146453882	206
4	1733	105.923941527927	207
4	1733	105.923941527927	208
4	1733	105.923941527927	209
4	1761	107.268261186782	210
4	1761	107.268261186782	211
4	1761	107.268261186782	212
4	1791	109.074680235819	213
4	1791	109.074680235819	214
4	1791	109.074680235819	215
4	1811	110.197567201481	216
4	1811	110.197567201481	217
4	1811	110.197567201481	218
4	1840	111.91578387578	219
4	1840	111.91578387578	220
4	1840	111.91578387578	221
4	1864	113.009932124069	222
4	1864	113.009932124069	223
4	1864	113.009932124069	224
4	1890	114.739242742133	225
4	1890	114.739242742133	226
4	1890	114.739242742133	227
4	1919	116.101629563263	228
4	1919	116.101629563263	229
4	1919	116.101629563263	230
4	1936	117.37178437002	231
4	1936	117.37178437002	232
4	1936	117.37178437002	233
4	1965	118.849836857456	234
4	1965	118.849836857456	235
4	1965	118.849836857456	236
4	1990	120.306703258127	237
4	1990	120.306703258127	238
4	1990	120.306703258127	239
4	2017	121.530255110372	240
4	2017	121.530255110372	241
4	2017	121.530255110372	242
4	2036	123.440344905629	243
4	2036	123.440344905629	244
4	2036	123.440344905629	245
4	2069	124.935907132668	246
4	2069	124.935907132668	247
4	2069	124.935907132668	248
4	2087	126.563299306946	249
4	2087	126.563299306946	250
4	2087	126.563299306946	251
4	2112	127.707547437015	252
4	2112	127.707547437015	253
4	2112	127.707547437015	254
4	2136	128.71082768423	255
4	2136	128.71082768423	256
4	2136	128.71082768423	257
4	2165	129.733950204195	258
4	2165	129.733950204195	259
4	2165	129.733950204195	260
4	2186	131.111259895388	261
4	2186	131.111259895388	262
4	2186	131.111259895388	263
4	2211	133.039846130615	264
4	2211	133.039846130615	265
4	2211	133.039846130615	266
4	2236	134.290469356867	267
4	2236	134.290469356867	268
4	2236	134.290469356867	269
4	2262	135.465599875861	270
4	2262	135.465599875861	271
4	2262	135.465599875861	272
4	2287	136.828886676214	273
4	2287	136.828886676214	274
4	2287	136.828886676214	275
4	2316	138.171762830546	276
4	2316	138.171762830546	277
4	2316	138.171762830546	278
4	2336	139.507977048946	279
4	2336	139.507977048946	280
4	2336	139.507977048946	281
4	2366	141.430238719259	282
4	2366	141.430238719259	283
4	2366	141.430238719259	284
4	2386	143.3473212516	285
4	2386	143.3473212516	286
4	2386	143.3473212516	287
4	2409	145.263553062179	288
4	2409	145.263553062179	289
4	2409	145.263553062179	290
4	2436	147.021442903691	291
4	2436	147.021442903691	292
4	2436	147.021442903691	293
4	2461	148.069030191938	294
4	2461	148.069030191938	295
4	2461	148.069030191938	296
4	2486	149.332647912846	297
4	2486	149.332647912846	298
4	2486	149.332647912846	299
4	2508	150.416119632978	300
4	2508	150.416119632978	301
4	2508	150.416119632978	302
4	2534	152.390686601037	303
4	2534	152.390686601037	304
4	2534	152.390686601037	305
4	2561	153.938532457294	306
4	2561	153.938532457294	307
4	2561	153.938532457294	308
4	2591	155.574654508249	309
4	2591	155.574654508249	310
4	2591	155.574654508249	311
4	2619	156.660742808631	312
4	2619	156.660742808631	313
4	2619	156.660742808631	314
4	2636	158.315260235367	315
4	2636	158.315260235367	316
4	2636	158.315260235367	317
4	2661	159.476183636454	318
4	2661	159.476183636454	319
4	2661	159.476183636454	320
4	2687	160.890911619489	321
4	2687	160.890911619489	322
4	2687	160.890911619489	323
4	2709	162.130118998291	324
4	2709	162.130118998291	325
4	2709	162.130118998291	326
4	2737	163.946356946765	327
4	2737	163.946356946765	328
4	2737	163.946356946765	329
4	2762	165.483053445437	330
4	2762	165.483053445437	331
4	2762	165.483053445437	332
4	2787	167.425329743725	333
4	2787	167.425329743725	334
4	2787	167.425329743725	335
4	2811	168.519598798123	336
4	2811	168.519598798123	337
4	2811	168.519598798123	338
4	2836	169.93419736504	339
4	2836	169.93419736504	340
4	2836	169.93419736504	341
4	2861	171.058043593332	342
4	2861	171.058043593332	343
4	2861	171.058043593332	344
4	2886	172.826578843422	345
4	2886	172.826578843422	346
4	2886	172.826578843422	347
4	2912	174.708048128735	348
4	2912	174.708048128735	349
4	2912	174.708048128735	350
4	2936	176.301911241006	351
4	2936	176.301911241006	352
4	2936	176.301911241006	353
4	2959	178.093141186345	354
4	2959	178.093141186345	355
4	2959	178.093141186345	356
4	2986	179.252294858689	357
4	2986	179.252294858689	358
4	2986	179.252294858689	359
4	3011	180.632503030225	360
4	3011	180.632503030225	361
4	3011	180.632503030225	362
4	3040	181.999367721896	363
4	3040	181.999367721896	364
4	3040	181.999367721896	365
4	3066	183.621531879162	366
4	3066	183.621531879162	367
4	3066	183.621531879162	368
4	3086	185.494342172143	369
4	3086	185.494342172143	370
4	3086	185.494342172143	371
4	3116	187.309186583221	372
4	3116	187.309186583221	373
4	3116	187.309186583221	374
4	3140	188.986632240057	375
4	3140	188.986632240057	376
4	3140	188.986632240057	377
4	3161	190.497280359241	378
4	3161	190.497280359241	379
4	3161	190.497280359241	380
4	3185	192.341985943051	381
4	3185	192.341985943051	382
4	3185	192.341985943051	383
4	3209	194.339095109195	384
4	3209	194.339095109195	385
4	3209	194.339095109195	386
4	3233	195.704487257309	387
4	3233	195.704487257309	388
4	3233	195.704487257309	389
4	3266	197.127583383801	390
4	3266	197.127583383801	391
4	3266	197.127583383801	392
4	3290	198.862412285493	393
4	3290	198.862412285493	394
4	3290	198.862412285493	395
4	3311	200.530101649416	396
4	3311	200.530101649416	397
4	3311	200.530101649416	398
4	3340	202.523214895234	399
4	3340	202.523214895234	400
4	3340	202.523214895234	401
4	3366	203.95076985444	402
4	3366	203.95076985444	403
4	3366	203.95076985444	404
4	3384	205.43238119699	405
4	3384	205.43238119699	406
4	3384	205.43238119699	407
4	3412	207.198354168493	408
4	3412	207.198354168493	409
4	3412	207.198354168493	410
4	3437	208.412947112549	411
4	3437	208.412947112549	412
4	3437	208.412947112549	413
4	3461	210.253601458883	414
4	3461	210.253601458883	415
4	3461	210.253601458883	416
4	3485	212.174051551012	417
4	3485	212.174051551012	418
4	3485	212.174051551012	419
4	3512	214.002168169643	420
4	3512	214.002168169643	421
4	3512	214.002168169643	422
4	3538	215.052575995926	423
4	3538	215.052575995926	424
4	3538	215.052575995926	425
4	3561	216.710193805172	426
4	3561	216.710193805172	427
4	3561	216.710193805172	428
4	3587	218.113102253335	429
4	3587	218.113102253335	430
4	3587	218.113102253335	431
4	3612	219.889487875422	432
4	3612	219.889487875422	433
4	3612	219.889487875422	434
4	3636	221.536923453962	435
4	3636	221.536923453962	436
4	3636	221.536923453962	437
4	3662	223.477100537634	438
4	3662	223.477100537634	439
4	3662	223.477100537634	440
4	3684	224.759288161702	441
4	3684	224.759288161702	442
4	3684	224.759288161702	443
4	3708	226.675970760699	444
4	3708	226.675970760699	445
4	3708	226.675970760699	446
4	3737	227.907952312463	447
4	3737	227.907952312463	448
4	3737	227.907952312463	449
4	3766	229.371759417635	450
4	3766	229.371759417635	451
4	3766	229.371759417635	452
4	3794	230.774605228812	453
4	3794	230.774605228812	454
4	3794	230.774605228812	455
4	3815	232.025228775289	456
4	3815	232.025228775289	457
4	3815	232.025228775289	458
4	3836	233.852324713665	459
4	3836	233.852324713665	460
4	3836	233.852324713665	461
4	3861	235.145297785092	462
4	3861	235.145297785092	463
4	3861	235.145297785092	464
4	3884	236.803218529379	465
4	3884	236.803218529379	466
4	3884	236.803218529379	467
4	3916	238.469855512047	468
4	3916	238.469855512047	469
4	3916	238.469855512047	470
5	19	0.179746664049	0
5	19	0.179746664049	1
5	48	1.780717124086	2
5	48	1.780717124086	3
5	70	3.675937450069	4
5	70	3.675937450069	5
5	98	5.300549748285	6
5	98	5.300549748285	7
5	118	7.209020685619	8
5	118	7.209020685619	9
5	148	8.276468205262	10
5	148	8.276468205262	11
5	173	9.404229544878	12
5	173	9.404229544878	13
5	198	10.85632567105	14
5	198	10.85632567105	15
5	223	12.422615067299	16
5	223	12.422615067299	17
5	248	14.007843912194	18
5	248	14.007843912194	19
5	270	15.270150137147	20
5	270	15.270150137147	21
5	298	16.77803117964	22
5	298	16.77803117964	23
5	323	18.402040733922	24
5	323	18.402040733922	25
5	348	20.334261078421	26
5	348	20.334261078421	27
5	373	22.187038615602	28
5	373	22.187038615602	29
5	395	24.035328560869	30
5	395	24.035328560869	31
5	423	25.800103738184	32
5	423	25.800103738184	33
5	441	27.654007458328	34
5	441	27.654007458328	35
5	466	28.912744051939	36
5	466	28.912744051939	37
5	491	30.370080039885	38
5	491	30.370080039885	39
5	520	31.644922712587	40
5	520	31.644922712587	41
5	548	33.40369551933	42
5	548	33.40369551933	43
5	573	35.333496956109	44
5	573	35.333496956109	45
5	594	36.809612240689	46
5	594	36.809612240689	47
5	623	38.309498483361	48
5	623	38.309498483361	49
5	645	39.702293363124	50
5	645	39.702293363124	51
5	664	40.781567301472	52
5	664	40.781567301472	53
5	695	42.330198589324	54
5	695	42.330198589324	55
5	719	43.905325568653	56
5	719	43.905325568653	57
5	745	45.399270776906	58
5	745	45.399270776906	59
5	769	46.836740768799	60
5	769	46.836740768799	61
5	798	47.853219714292	62
5	798	47.853219714292	63
5	815	49.473954815013	64
5	815	49.473954815013	65
5	845	51.006677038603	66
5	845	51.006677038603	67
5	873	52.278794352902	68
5	873	52.278794352902	69
5	898	53.945238153282	70
5	898	53.945238153282	71
5	923	55.630028912787	72
5	923	55.630028912787	73
5	945	56.728866757535	74
5	945	56.728866757535	75
5	969	58.471560711797	76
5	969	58.471560711797	77
5	998	59.506897470819	78
5	998	59.506897470819	79
5	1023	61.500420004055	80
5	1023	61.500420004055	81
5	1045	62.758513834013	82
5	1045	62.758513834013	83
5	1073	64.435355853125	84
5	1073	64.435355853125	85
5	1098	65.486976853528	86
5	1098	65.486976853528	87
5	1117	67.13404514037	88
5	1117	67.13404514037	89
5	1148	69.047593553895	90
5	1148	69.047593553895	91
5	1166	70.919302355344	92
5	1166	70.919302355344	93
5	1198	72.836695613237	94
5	1198	72.836695613237	95
5	1223	73.895431228126	96
5	1223	73.895431228126	97
5	1241	75.540864609146	98
5	1241	75.540864609146	99
5	1269	76.668665382253	100
5	1269	76.668665382253	101
5	1295	78.667339063	102
5	1295	78.667339063	103
5	1316	80.228136929717	104
5	1316	80.228136929717	105
5	1348	81.849412139324	106
5	1348	81.849412139324	107
5	1370	83.116891510906	108
5	1370	83.116891510906	109
5	1398	84.816148722573	110
5	1398	84.816148722573	111
5	1420	86.743730491869	112
5	1420	86.743730491869	113
5	1444	88.384368103372	114
5	1444	88.384368103372	115
5	1467	89.832126010794	116
5	1467	89.832126010794	117
5	1491	91.50045311306	118
5	1491	91.50045311306	119
5	1523	92.639080098273	120
5	1523	92.639080098273	121
5	1548	94.500512959343	122
5	1548	94.500512959343	123
5	1565	95.783534886747	124
5	1565	95.783534886747	125
5	1598	97.293010319913	126
5	1598	97.293010319913	127
5	1623	98.748373388238	128
5	1623	98.748373388238	129
5	1645	99.706544137965	130
5	1645	99.706544137965	131
5	1669	101.587267143887	132
5	1669	101.587267143887	133
5	1695	102.698572963811	134
5	1695	102.698572963811	135
5	1720	103.979282565415	136
5	1720	103.979282565415	137
5	1742	105.940712145051	138
5	1742	105.940712145051	139
5	1770	107.282977143987	140
5	1770	107.282977143987	141
5	1798	109.088412433103	142
5	1798	109.088412433103	143
5	1816	110.21833378797	144
5	1816	110.21833378797	145
5	1848	111.932419092629	146
5	1848	111.932419092629	147
5	1873	113.02347301207	148
5	1873	113.02347301207	149
5	1895	114.75333713526	150
5	1895	114.75333713526	151
5	1923	116.121381853687	152
5	1923	116.121381853687	153
5	1948	117.395057599745	154
5	1948	117.395057599745	155
5	1973	118.871878069057	156
5	1973	118.871878069057	157
5	1998	120.344576144454	158
5	1998	120.344576144454	159
5	2023	121.541392090656	160
5	2023	121.541392090656	161
5	2040	123.453034610912	162
5	2040	123.453034610912	163
5	2073	124.948842556701	164
5	2073	124.948842556701	165
5	2098	126.592489281193	166
5	2098	126.592489281193	167
5	2119	127.718509551957	168
5	2119	127.718509551957	169
5	2141	128.720834328592	170
5	2141	128.720834328592	171
5	2169	129.755070693059	172
5	2169	129.755070693059	173
5	2194	131.135488838003	174
5	2194	131.135488838003	175
5	2216	133.058366245389	176
5	2216	133.058366245389	177
5	2240	134.308511961845	178
5	2240	134.308511961845	179
5	2273	135.484157989064	180
5	2273	135.484157989064	181
5	2295	136.845945817952	182
5	2295	136.845945817952	183
5	2323	138.183458596947	184
5	2323	138.183458596947	185
5	2341	139.521531714947	186
5	2341	139.521531714947	187
5	2373	141.452510171835	188
5	2373	141.452510171835	189
5	2394	143.365541303007	190
5	2394	143.365541303007	191
5	2420	145.288410189855	192
5	2420	145.288410189855	193
5	2445	147.072187816171	194
5	2445	147.072187816171	195
5	2466	148.080528347878	196
5	2466	148.080528347878	197
5	2495	149.35146941359	198
5	2495	149.35146941359	199
5	2521	150.450059340994	200
5	2521	150.450059340994	201
5	2542	152.406307733656	202
5	2542	152.406307733656	203
5	2573	153.97126830254	204
5	2573	153.97126830254	205
5	2598	155.610045129351	206
5	2598	155.610045129351	207
5	2623	156.671295119477	208
5	2623	156.671295119477	209
5	2645	158.334799379601	210
5	2645	158.334799379601	211
5	2665	159.487034653255	212
5	2665	159.487034653255	213
5	2694	160.905596669017	214
5	2694	160.905596669017	215
5	2716	162.141146633326	216
5	2716	162.141146633326	217
5	2748	163.985186780962	218
5	2748	163.985186780962	219
5	2770	165.499414449878	220
5	2770	165.499414449878	221
5	2798	167.47758241274	222
5	2798	167.47758241274	223
5	2816	168.534644491837	224
5	2816	168.534644491837	225
5	2840	169.944705033547	226
5	2840	169.944705033547	227
5	2865	171.078752621342	228
5	2865	171.078752621342	229
5	2891	172.837676858988	230
5	2891	172.837676858988	231
5	2919	174.721427022994	232
5	2919	174.721427022994	233
5	2940	176.312075104182	234
5	2940	176.312075104182	235
5	2967	178.11580389059	236
5	2967	178.11580389059	237
5	2990	179.262603848776	238
5	2990	179.262603848776	239
5	3023	180.659650775835	240
5	3023	180.659650775835	241
5	3048	182.017485625817	242
5	3048	182.017485625817	243
5	3073	183.644931772763	244
5	3073	183.644931772763	245
5	3091	185.507883892896	246
5	3091	185.507883892896	247
5	3123	187.330854905166	248
5	3123	187.330854905166	249
5	3145	189.000454100037	250
5	3145	189.000454100037	251
5	3170	190.51106937783	252
5	3170	190.51106937783	253
5	3195	192.36449371424	254
5	3195	192.36449371424	255
5	3215	194.349681986949	256
5	3215	194.349681986949	257
5	3238	195.715677619085	258
5	3238	195.715677619085	259
5	3273	197.147754524199	260
5	3273	197.147754524199	261
5	3294	198.873224308097	262
5	3294	198.873224308097	263
5	3316	200.542982442418	264
5	3316	200.542982442418	265
5	3344	202.536520146971	266
5	3344	202.536520146971	267
5	3373	203.962861425256	268
5	3373	203.962861425256	269
5	3391	205.44354170145	270
5	3391	205.44354170145	271
5	3423	207.225887055349	272
5	3423	207.225887055349	273
5	3444	208.424175133376	274
5	3444	208.424175133376	275
5	3469	210.267531868965	276
5	3469	210.267531868965	277
5	3494	212.184142563898	278
5	3494	212.184142563898	279
5	3520	214.019225332246	280
5	3520	214.019225332246	281
5	3545	215.068913169352	282
5	3545	215.068913169352	283
5	3569	216.724755206022	284
5	3569	216.724755206022	285
5	3594	218.131337567078	286
5	3594	218.131337567078	287
5	3620	219.910991862175	288
5	3620	219.910991862175	289
5	3645	221.563966493613	290
5	3645	221.563966493613	291
5	3669	223.494148659869	292
5	3669	223.494148659869	293
5	3692	224.784391054736	294
5	3692	224.784391054736	295
5	3713	226.693060958899	296
5	3713	226.693060958899	297
5	3744	227.922246110528	298
5	3744	227.922246110528	299
5	3773	229.383278230783	300
5	3773	229.383278230783	301
5	3798	230.801739722809	302
5	3798	230.801739722809	303
5	3823	232.051763098043	304
5	3823	232.051763098043	305
5	3840	233.862930802544	306
5	3840	233.862930802544	307
5	3870	235.169462745468	308
5	3870	235.169462745468	309
5	3892	236.815265629297	310
5	3892	236.815265629297	311
5	3923	238.513156310991	312
5	3923	238.513156310991	313
6	21	0.189746664049	0
6	25	0.211530215225	1
6	43	1.758865608482	2
6	50	1.790717124086	3
6	73	3.684949745435	4
6	75	3.685937450069	5
6	94	5.284328562523	6
6	100	5.310549748285	7
6	123	7.215652173854	8
6	125	7.219020685619	9
6	147	8.260287771867	10
6	150	8.286468205262	11
6	165	9.386158981359	12
6	175	9.414229544878	13
6	194	10.844183857972	14
6	200	10.86632567105	15
6	219	12.401537350294	16
6	225	12.432615067299	17
6	243	13.981070518715	18
6	250	14.017843912194	19
6	273	15.27312434402	20
6	275	15.280150137147	21
6	293	16.749042430602	22
6	300	16.78803117964	23
6	319	18.393708991735	24
6	325	18.412040733922	25
6	344	20.331991687833	26
6	350	20.344261078421	27
6	369	22.177215472273	28
6	375	22.197038615602	29
6	398	24.041166242812	30
6	400	24.045328560869	31
6	418	25.783740348119	32
6	425	25.810103738184	33
6	446	27.664007458328	34
6	450	27.674700627808	35
6	472	28.922744051939	36
6	475	28.928795673662	37
6	497	30.380080039885	38
6	500	30.383371022958	39
6	518	31.64223332744	40
6	525	31.654922712587	41
6	547	33.396670847225	42
6	550	33.41369551933	43
6	572	35.319725372071	44
6	575	35.343496956109	45
6	596	36.819612240689	46
6	600	36.834128642526	47
6	622	38.289090351483	48
6	625	38.319498483361	49
6	648	39.710551441681	50
6	650	39.712293363124	51
6	672	40.791567301472	52
6	675	40.801453198116	53
6	698	42.332053527595	54
6	700	42.340198589324	55
6	722	43.915325568653	56
6	725	43.915821828953	57
6	748	45.401214448568	58
6	750	45.409270776906	59
6	771	46.846740768799	60
6	775	46.856900054436	61
6	794	47.844844895509	62
6	800	47.863219714292	63
6	818	49.483954815013	64
6	825	49.499542992665	65
6	848	51.014072066094	66
6	850	51.016677038603	67
6	872	52.272219572045	68
6	875	52.288794352902	69
6	897	53.930804041793	70
6	900	53.955238153282	71
6	919	55.616380915907	72
6	925	55.640028912787	73
6	948	56.735267186108	74
6	950	56.738866757535	75
6	972	58.481560711797	76
6	975	58.487537220648	77
6	997	59.504566947094	78
6	1000	59.516897470819	79
6	1022	61.487120471575	80
6	1025	61.510420004055	81
6	1048	62.76399087328	82
6	1050	62.768513834013	83
6	1072	64.43421520378	84
6	1075	64.445355853125	85
6	1094	65.469822755878	86
6	1100	65.496976853528	87
6	1120	67.134256796551	88
6	1123	67.14404514037	89
6	1147	69.0459845017	90
6	1150	69.057593553895	91
6	1170	70.923963266566	92
6	1172	70.929302355344	93
6	1194	72.830984726578	94
6	1200	72.846695613237	95
6	1222	73.888965975409	96
6	1225	73.905431228126	97
6	1247	75.550864609146	98
6	1250	75.559307635734	99
6	1271	76.678665382253	100
6	1275	76.696131663784	101
6	1298	78.66795801657	102
6	1300	78.677339063	103
6	1322	80.238136929717	104
6	1325	80.238703100577	105
6	1347	81.84625432504	106
6	1350	81.859412139324	107
6	1373	83.123748385178	108
6	1375	83.126891510906	109
6	1394	84.799665699023	110
6	1400	84.826148722573	111
6	1423	86.749038715672	112
6	1425	86.753730491869	113
6	1446	88.394368103372	114
6	1450	88.406666225869	115
6	1472	89.842126010794	116
6	1475	89.842832780584	117
6	1496	91.51045311306	118
6	1500	91.530966338213	119
6	1519	92.627912655797	120
6	1525	92.649080098273	121
6	1544	94.482022692539	122
6	1550	94.510512959343	123
6	1568	95.793534886747	124
6	1575	95.805690626783	125
6	1593	97.276456801066	126
6	1600	97.303010319913	127
6	1622	98.747783536476	128
6	1625	98.758373388238	129
6	1648	99.709861612323	130
6	1650	99.716544137965	131
6	1672	101.597267143887	132
6	1675	101.599579111426	133
6	1698	102.700394089643	134
6	1700	102.708572963811	135
6	1723	103.983512542479	136
6	1725	103.989282565415	137
6	1746	105.950712145051	138
6	1750	105.966864024185	139
6	1773	107.291033221167	140
6	1775	107.292977143987	141
6	1794	109.08020346024	142
6	1800	109.098412433103	143
6	1822	110.22833378797	144
6	1825	110.230476828537	145
6	1847	111.927559612258	146
6	1850	111.942419092629	147
6	1867	113.013081543066	148
6	1875	113.03347301207	149
6	1898	114.754340421925	150
6	1900	114.76333713526	151
6	1918	116.096429348907	152
6	1925	116.131381853687	153
6	1947	117.393726279808	154
6	1950	117.405057599745	155
6	1972	118.861495390283	156
6	1975	118.881878069057	157
6	1997	120.323339490045	158
6	2000	120.354576144454	159
6	2016	121.529853397905	160
6	2025	121.551392090656	161
6	2043	123.463034610912	162
6	2046	123.470033909658	163
6	2068	124.90624183042	164
6	2075	124.958842556701	165
6	2097	126.582051478394	166
6	2100	126.602489281193	167
6	2122	127.728509551957	168
6	2125	127.73481702786	169
6	2146	128.730834328592	170
6	2150	128.759243693788	171
6	2172	129.765070693059	172
6	2175	129.774628804951	173
6	2193	131.131431972319	174
6	2197	131.145488838003	175
6	2220	133.06597863583	176
6	2222	133.068366245389	177
6	2242	134.318511961845	178
6	2247	134.329561861766	179
6	2272	135.48200771458	180
6	2275	135.494157989064	181
6	2298	136.847663230667	182
6	2300	136.855945817952	183
6	2319	138.177830002585	184
6	2325	138.193458596947	185
6	2347	139.531531714947	186
6	2350	139.532893884398	187
6	2369	141.431077631526	188
6	2375	141.462510171835	189
6	2397	143.375541303007	190
6	2400	143.378354029981	191
6	2423	145.293972111117	192
6	2425	145.298410189855	193
6	2448	147.081755351264	194
6	2450	147.082187816171	195
6	2471	148.090528347878	196
6	2475	148.101118060825	197
6	2498	149.361071044026	198
6	2500	149.36146941359	199
6	2520	150.449427854355	200
6	2525	150.460059340994	201
6	2548	152.411050571936	202
6	2550	152.416307733656	203
6	2572	153.966847983572	204
6	2575	153.98126830254	205
6	2594	155.578667190932	206
6	2600	155.620045129351	207
6	2618	156.64393226836	208
6	2625	156.681295119477	209
6	2648	158.335638599985	210
6	2650	158.344799379601	211
6	2669	159.497034653255	212
6	2675	159.503382341712	213
6	2697	160.915596669017	214
6	2700	160.915959612756	215
6	2722	162.151146633326	216
6	2725	162.151368867942	217
6	2747	163.978309934075	218
6	2750	163.995186780962	219
6	2773	165.500036793368	220
6	2775	165.509414449878	221
6	2797	167.451253058987	222
6	2800	167.48758241274	223
6	2819	168.541211934295	224
6	2821	168.544644491837	225
6	2843	169.954705033547	226
6	2846	169.955271598301	227
6	2868	171.088752621342	228
6	2875	171.107124278709	229
6	2896	172.847676858988	230
6	2900	172.870427479854	231
6	2921	174.731427022994	232
6	2925	174.74815241955	233
6	2943	176.322075104182	234
6	2950	176.332205929854	235
6	2970	178.119359690245	236
6	2975	178.12580389059	237
6	2993	179.272603848776	238
6	2996	179.274446901338	239
6	3022	180.659154360385	240
6	3025	180.669650775835	241
6	3047	182.010933357784	242
6	3050	182.027485625817	243
6	3069	183.627436055782	244
6	3075	183.654931772763	245
6	3096	185.517883892896	246
6	3100	185.534187795856	247
6	3119	187.316496547417	248
6	3125	187.340854905166	249
6	3148	189.00284644733	250
6	3150	189.010454100037	251
6	3173	190.519965462524	252
6	3175	190.52106937783	253
6	3198	192.369065794113	254
6	3200	192.37449371424	255
6	3217	194.359681986949	256
6	3221	194.371865479747	257
6	3244	195.725677619085	258
6	3247	195.726635721044	259
6	3269	197.1315167467	260
6	3275	197.157754524199	261
6	3296	198.883224308097	262
6	3300	198.904461743711	263
6	3321	200.552982442418	264
6	3325	200.569085869515	265
6	3346	202.546520146971	266
6	3350	202.56139083711	267
6	3369	203.958752501714	268
6	3375	203.972861425256	269
6	3395	205.45354170145	270
6	3400	205.458287340216	271
6	3422	207.218502515541	272
6	3425	207.235887055349	273
6	3447	208.434175133376	274
6	3450	208.439417205684	275
6	3472	210.277531868965	276
6	3475	210.279161912369	277
6	3497	212.194142563898	278
6	3500	212.194700553372	279
6	3523	214.022421650893	280
6	3525	214.029225332246	281
6	3548	215.071054039064	282
6	3550	215.078913169352	283
6	3571	216.734755206022	284
6	3575	216.771972196713	285
6	3597	218.141337567078	286
6	3600	218.14717217215	287
6	3623	219.913896147229	288
6	3625	219.920991862175	289
6	3644	221.56108777386	290
6	3650	221.573966493613	291
6	3671	223.504148659869	292
6	3675	223.515398678074	293
6	3698	224.786032378867	294
6	3700	224.794391054736	295
6	3716	226.697158761585	296
6	3720	226.703060958899	297
6	3746	227.932246110528	298
6	3750	227.961453910942	299
6	3769	229.377255730205	300
6	3775	229.393278230783	301
6	3793	230.773357041571	302
6	3800	230.811739722809	303
6	3822	232.049105012064	304
6	3825	232.061763098043	305
6	3843	233.872930802544	306
6	3847	233.880899104348	307
6	3873	235.17204999347	308
6	3875	235.179462745468	309
6	3898	236.823280756776	310
6	3900	236.825265629297	311
6	3919	238.473799603864	312
6	3925	238.523156310991	313
7	22	0.201530215225	0
7	22	0.201530215225	1
7	22	0.201530215225	2
7	40	1.748865608482	3
7	40	1.748865608482	4
7	40	1.748865608482	5
7	66	3.674949745435	6
7	66	3.674949745435	7
7	66	3.674949745435	8
7	90	5.274328562523	9
7	90	5.274328562523	10
7	90	5.274328562523	11
7	117	7.205652173854	12
7	117	7.205652173854	13
7	117	7.205652173854	14
7	144	8.250287771867	15
7	144	8.250287771867	16
7	144	8.250287771867	17
7	161	9.376158981359	18
7	161	9.376158981359	19
7	161	9.376158981359	20
7	190	10.834183857972	21
7	190	10.834183857972	22
7	190	10.834183857972	23
7	215	12.391537350294	24
7	215	12.391537350294	25
7	215	12.391537350294	26
7	240	13.971070518715	27
7	240	13.971070518715	28
7	240	13.971070518715	29
7	266	15.26312434402	30
7	266	15.26312434402	31
7	266	15.26312434402	32
7	290	16.739042430602	33
7	290	16.739042430602	34
7	290	16.739042430602	35
7	315	18.383708991735	36
7	315	18.383708991735	37
7	315	18.383708991735	38
7	340	20.321991687833	39
7	340	20.321991687833	40
7	340	20.321991687833	41
7	365	22.167215472273	42
7	365	22.167215472273	43
7	365	22.167215472273	44
7	394	24.031166242812	45
7	394	24.031166242812	46
7	394	24.031166242812	47
7	412	25.773740348119	48
7	412	25.773740348119	49
7	412	25.773740348119	50
7	447	27.664700627808	51
7	447	27.664700627808	52
7	447	27.664700627808	53
7	470	28.918795673662	54
7	470	28.918795673662	55
7	470	28.918795673662	56
7	495	30.373371022958	57
7	495	30.373371022958	58
7	495	30.373371022958	59
7	513	31.63223332744	60
7	513	31.63223332744	61
7	513	31.63223332744	62
7	544	33.386670847225	63
7	544	33.386670847225	64
7	544	33.386670847225	65
7	566	35.309725372071	66
7	566	35.309725372071	67
7	566	35.309725372071	68
7	597	36.824128642526	69
7	597	36.824128642526	70
7	597	36.824128642526	71
7	616	38.279090351483	72
7	616	38.279090351483	73
7	616	38.279090351483	74
7	644	39.700551441681	75
7	644	39.700551441681	76
7	644	39.700551441681	77
7	670	40.791453198116	78
7	670	40.791453198116	79
7	670	40.791453198116	80
7	691	42.322053527595	81
7	691	42.322053527595	82
7	691	42.322053527595	83
7	720	43.905821828953	84
7	720	43.905821828953	85
7	720	43.905821828953	86
7	744	45.391214448568	87
7	744	45.391214448568	88
7	744	45.391214448568	89
7	772	46.846900054436	90
7	772	46.846900054436	91
7	772	46.846900054436	92
7	790	47.834844895509	93
7	790	47.834844895509	94
7	790	47.834844895509	95
7	822	49.489542992665	96
7	822	49.489542992665	97
7	822	49.489542992665	98
7	844	51.004072066094	99
7	844	51.004072066094	100
7	844	51.004072066094	101
7	869	52.262219572045	102
7	869	52.262219572045	103
7	869	52.262219572045	104
7	894	53.920804041793	105
7	894	53.920804041793	106
7	894	53.920804041793	107
7	915	55.606380915907	108
7	915	55.606380915907	109
7	915	55.606380915907	110
7	944	56.725267186108	111
7	944	56.725267186108	112
7	944	56.725267186108	113
7	970	58.477537220648	114
7	970	58.477537220648	115
7	970	58.477537220648	116
7	991	59.494566947094	117
7	991	59.494566947094	118
7	991	59.494566947094	119
7	1016	61.477120471575	120
7	1016	61.477120471575	121
7	1016	61.477120471575	122
7	1044	62.75399087328	123
7	1044	62.75399087328	124
7	1044	62.75399087328	125
7	1069	64.42421520378	126
7	1069	64.42421520378	127
7	1069	64.42421520378	128
7	1090	65.459822755878	129
7	1090	65.459822755878	130
7	1090	65.459822755878	131
7	1113	67.124256796551	132
7	1113	67.124256796551	133
7	1113	67.124256796551	134
7	1139	69.0359845017	135
7	1139	69.0359845017	136
7	1139	69.0359845017	137
7	1165	70.913963266566	138
7	1165	70.913963266566	139
7	1165	70.913963266566	140
7	1190	72.820984726578	141
7	1190	72.820984726578	142
7	1190	72.820984726578	143
7	1219	73.878965975409	144
7	1219	73.878965975409	145
7	1219	73.878965975409	146
7	1245	75.549307635734	147
7	1245	75.549307635734	148
7	1245	75.549307635734	149
7	1272	76.686131663784	150
7	1272	76.686131663784	151
7	1272	76.686131663784	152
7	1294	78.65795801657	153
7	1294	78.65795801657	154
7	1294	78.65795801657	155
7	1317	80.228703100577	156
7	1317	80.228703100577	157
7	1317	80.228703100577	158
7	1341	81.83625432504	159
7	1341	81.83625432504	160
7	1341	81.83625432504	161
7	1369	83.113748385178	162
7	1369	83.113748385178	163
7	1369	83.113748385178	164
7	1390	84.789665699023	165
7	1390	84.789665699023	166
7	1390	84.789665699023	167
7	1419	86.739038715672	168
7	1419	86.739038715672	169
7	1419	86.739038715672	170
7	1447	88.396666225869	171
7	1447	88.396666225869	172
7	1447	88.396666225869	173
7	1468	89.832832780584	174
7	1468	89.832832780584	175
7	1468	89.832832780584	176
7	1497	91.520966338213	177
7	1497	91.520966338213	178
7	1497	91.520966338213	179
7	1515	92.617912655797	180
7	1515	92.617912655797	181
7	1515	92.617912655797	182
7	1540	94.472022692539	183
7	1540	94.472022692539	184
7	1540	94.472022692539	185
7	1569	95.795690626783	186
7	1569	95.795690626783	187
7	1569	95.795690626783	188
7	1590	97.266456801066	189
7	1590	97.266456801066	190
7	1590	97.266456801066	191
7	1616	98.737783536476	192
7	1616	98.737783536476	193
7	1616	98.737783536476	194
7	1641	99.699861612323	195
7	1641	99.699861612323	196
7	1641	99.699861612323	197
7	1670	101.589579111426	198
7	1670	101.589579111426	199
7	1670	101.589579111426	200
7	1694	102.690394089643	201
7	1694	102.690394089643	202
7	1694	102.690394089643	203
7	1716	103.973512542479	204
7	1716	103.973512542479	205
7	1716	103.973512542479	206
7	1747	105.956864024185	207
7	1747	105.956864024185	208
7	1747	105.956864024185	209
7	1769	107.281033221167	210
7	1769	107.281033221167	211
7	1769	107.281033221167	212
7	1790	109.07020346024	213
7	1790	109.07020346024	214
7	1790	109.07020346024	215
7	1817	110.220476828537	216
7	1817	110.220476828537	217
7	1817	110.220476828537	218
7	1841	111.917559612258	219
7	1841	111.917559612258	220
7	1841	111.917559612258	221
7	1862	113.003081543066	222
7	1862	113.003081543066	223
7	1862	113.003081543066	224
7	1891	114.744340421925	225
7	1891	114.744340421925	226
7	1891	114.744340421925	227
7	1915	116.086429348907	228
7	1915	116.086429348907	229
7	1915	116.086429348907	230
7	1941	117.383726279808	231
7	1941	117.383726279808	232
7	1941	117.383726279808	233
7	1966	118.851495390283	234
7	1966	118.851495390283	235
7	1966	118.851495390283	236
7	1991	120.313339490045	237
7	1991	120.313339490045	238
7	1991	120.313339490045	239
7	2012	121.519853397905	240
7	2012	121.519853397905	241
7	2012	121.519853397905	242
7	2041	123.460033909658	243
7	2041	123.460033909658	244
7	2041	123.460033909658	245
7	2062	124.89624183042	246
7	2062	124.89624183042	247
7	2062	124.89624183042	248
7	2091	126.572051478394	249
7	2091	126.572051478394	250
7	2091	126.572051478394	251
7	2120	127.72481702786	252
7	2120	127.72481702786	253
7	2120	127.72481702786	254
7	2147	128.749243693788	255
7	2147	128.749243693788	256
7	2147	128.749243693788	257
7	2170	129.764628804951	258
7	2170	129.764628804951	259
7	2170	129.764628804951	260
7	2190	131.121431972319	261
7	2190	131.121431972319	262
7	2190	131.121431972319	263
7	2215	133.05597863583	264
7	2215	133.05597863583	265
7	2215	133.05597863583	266
7	2243	134.319561861766	267
7	2243	134.319561861766	268
7	2243	134.319561861766	269
7	2266	135.47200771458	270
7	2266	135.47200771458	271
7	2266	135.47200771458	272
7	2291	136.837663230667	273
7	2291	136.837663230667	274
7	2291	136.837663230667	275
7	2315	138.167830002585	276
7	2315	138.167830002585	277
7	2315	138.167830002585	278
7	2342	139.522893884398	279
7	2342	139.522893884398	280
7	2342	139.522893884398	281
7	2365	141.421077631526	282
7	2365	141.421077631526	283
7	2365	141.421077631526	284
7	2395	143.368354029981	285
7	2395	143.368354029981	286
7	2395	143.368354029981	287
7	2419	145.283972111117	288
7	2419	145.283972111117	289
7	2419	145.283972111117	290
7	2444	147.071755351264	291
7	2444	147.071755351264	292
7	2444	147.071755351264	293
7	2472	148.091118060825	294
7	2472	148.091118060825	295
7	2472	148.091118060825	296
7	2494	149.351071044026	297
7	2494	149.351071044026	298
7	2494	149.351071044026	299
7	2516	150.439427854355	300
7	2516	150.439427854355	301
7	2516	150.439427854355	302
7	2541	152.401050571936	303
7	2541	152.401050571936	304
7	2541	152.401050571936	305
7	2569	153.956847983572	306
7	2569	153.956847983572	307
7	2569	153.956847983572	308
7	2590	155.568667190932	309
7	2590	155.568667190932	310
7	2590	155.568667190932	311
7	2612	156.63393226836	312
7	2612	156.63393226836	313
7	2612	156.63393226836	314
7	2641	158.325638599985	315
7	2641	158.325638599985	316
7	2641	158.325638599985	317
7	2667	159.493382341712	318
7	2667	159.493382341712	319
7	2667	159.493382341712	320
7	2695	160.905959612756	321
7	2695	160.905959612756	322
7	2695	160.905959612756	323
7	2717	162.141368867942	324
7	2717	162.141368867942	325
7	2717	162.141368867942	326
7	2744	163.968309934075	327
7	2744	163.968309934075	328
7	2744	163.968309934075	329
7	2766	165.490036793368	330
7	2766	165.490036793368	331
7	2766	165.490036793368	332
7	2794	167.441253058987	333
7	2794	167.441253058987	334
7	2794	167.441253058987	335
7	2815	168.531211934295	336
7	2815	168.531211934295	337
7	2815	168.531211934295	338
7	2841	169.945271598301	339
7	2841	169.945271598301	340
7	2841	169.945271598301	341
7	2872	171.097124278709	342
7	2872	171.097124278709	343
7	2872	171.097124278709	344
7	2897	172.860427479854	345
7	2897	172.860427479854	346
7	2897	172.860427479854	347
7	2922	174.73815241955	348
7	2922	174.73815241955	349
7	2922	174.73815241955	350
7	2944	176.322205929854	351
7	2944	176.322205929854	352
7	2944	176.322205929854	353
7	2965	178.109359690245	354
7	2965	178.109359690245	355
7	2965	178.109359690245	356
7	2991	179.264446901338	357
7	2991	179.264446901338	358
7	2991	179.264446901338	359
7	3016	180.649154360385	360
7	3016	180.649154360385	361
7	3016	180.649154360385	362
7	3041	182.000933357784	363
7	3041	182.000933357784	364
7	3041	182.000933357784	365
7	3065	183.617436055782	366
7	3065	183.617436055782	367
7	3065	183.617436055782	368
7	3097	185.524187795856	369
7	3097	185.524187795856	370
7	3097	185.524187795856	371
7	3115	187.306496547417	372
7	3115	187.306496547417	373
7	3115	187.306496547417	374
7	3141	188.99284644733	375
7	3141	188.99284644733	376
7	3141	188.99284644733	377
7	3169	190.509965462524	378
7	3169	190.509965462524	379
7	3169	190.509965462524	380
7	3194	192.359065794113	381
7	3194	192.359065794113	382
7	3194	192.359065794113	383
7	3218	194.361865479747	384
7	3218	194.361865479747	385
7	3218	194.361865479747	386
7	3239	195.716635721044	387
7	3239	195.716635721044	388
7	3239	195.716635721044	389
7	3265	197.1215167467	390
7	3265	197.1215167467	391
7	3265	197.1215167467	392
7	3297	198.894461743711	393
7	3297	198.894461743711	394
7	3297	198.894461743711	395
7	3322	200.559085869515	396
7	3322	200.559085869515	397
7	3322	200.559085869515	398
7	3347	202.55139083711	399
7	3347	202.55139083711	400
7	3347	202.55139083711	401
7	3365	203.948752501714	402
7	3365	203.948752501714	403
7	3365	203.948752501714	404
7	3393	205.448287340216	405
7	3393	205.448287340216	406
7	3393	205.448287340216	407
7	3419	207.208502515541	408
7	3419	207.208502515541	409
7	3419	207.208502515541	410
7	3445	208.429417205684	411
7	3445	208.429417205684	412
7	3445	208.429417205684	413
7	3470	210.269161912369	414
7	3470	210.269161912369	415
7	3470	210.269161912369	416
7	3495	212.184700553372	417
7	3495	212.184700553372	418
7	3495	212.184700553372	419
7	3519	214.012421650893	420
7	3519	214.012421650893	421
7	3519	214.012421650893	422
7	3541	215.061054039064	423
7	3541	215.061054039064	424
7	3541	215.061054039064	425
7	3572	216.761972196713	426
7	3572	216.761972196713	427
7	3572	216.761972196713	428
7	3595	218.13717217215	429
7	3595	218.13717217215	430
7	3595	218.13717217215	431
7	3619	219.903896147229	432
7	3619	219.903896147229	433
7	3619	219.903896147229	434
7	3640	221.55108777386	435
7	3640	221.55108777386	436
7	3640	221.55108777386	437
7	3672	223.505398678074	438
7	3672	223.505398678074	439
7	3672	223.505398678074	440
7	3691	224.776032378867	441
7	3691	224.776032378867	442
7	3691	224.776032378867	443
7	3712	226.687158761585	444
7	3712	226.687158761585	445
7	3712	226.687158761585	446
7	3747	227.951453910942	447
7	3747	227.951453910942	448
7	3747	227.951453910942	449
7	3763	229.367255730205	450
7	3763	229.367255730205	451
7	3763	229.367255730205	452
7	3790	230.763357041571	453
7	3790	230.763357041571	454
7	3790	230.763357041571	455
7	3819	232.039105012064	456
7	3819	232.039105012064	457
7	3819	232.039105012064	458
7	3841	233.870899104348	459
7	3841	233.870899104348	460
7	3841	233.870899104348	461
7	3869	235.16204999347	462
7	3869	235.16204999347	463
7	3869	235.16204999347	464
7	3891	236.813280756776	465
7	3891	236.813280756776	466
7	3891	236.813280756776	467
7	3915	238.463799603864	468
7	3915	238.463799603864	469
7	3915	238.463799603864	470

