version 2
run General-4-20231004-17:52:31-8419
attr configname General
attr datetime 20231004-17:52:31
attr experiment General
attr inifile omnetpp.ini
attr iterationvars ""
attr iterationvarsf ""
attr measurement ""
attr network Multihop
attr processid 8419
attr repetition 4
attr replication #4
attr resultdir results
attr runnumber 4
attr seedset 4
param Multihop.node[*].transmissionTime "uniform(1s, 2s)"
param Multihop.node[*].delayTime "uniform(0.01s, 0.2s)"
param Multihop.node[*].processingTime exponential(0.01s)
param Multihop.node[*].lossProbability 0.50

vector 0 Multihop.node[0] txVector ETV
vector 1 Multihop.node[1] txVector ETV
vector 2 Multihop.node[2] txVector ETV
vector 3 Multihop.node[3] txVector ETV
vector 4 Multihop.node[4] txVector ETV
vector 5 Multihop.node[5] rxVector ETV
0	1	0.193735669288	0
0	11	2.094357123985	1
0	15	3.235821296847	2
0	17	4.934241536227	3
0	19	6.837420062548	4
0	23	8.470383162065	5
0	29	10.04273965388	6
0	33	11.434505849298	7
0	35	13.047031192494	8
0	37	14.313504975674	9
0	41	15.957419238904	10
0	49	16.976443980041	11
0	51	18.41779251342	12
0	55	19.483502052178	13
0	59	21.349384807202	14
0	67	23.274537966273	15
0	69	24.3102961545	16
0	77	25.539058824687	17
0	81	26.780097429792	18
0	87	28.412761408056	19
0	89	29.989758376882	20
0	95	31.341432088439	21
0	103	32.424601183192	22
0	107	33.660742505605	23
0	109	34.786924166291	24
0	111	35.862630541588	25
0	115	37.548218744959	26
0	119	38.863892232918	27
0	123	40.562057837763	28
0	125	42.466633930023	29
0	135	43.843053400668	30
0	139	44.923032640631	31
0	149	46.018230718014	32
0	153	47.962181391114	33
0	157	49.554055036896	34
0	161	50.920824705775	35
0	163	52.441499107204	36
0	173	53.748511778809	37
0	183	55.535264924787	38
0	185	57.016724868132	39
0	189	58.944133478603	40
0	191	60.097161730672	41
0	193	62.064841360007	42
0	195	63.385457006902	43
0	199	65.271254099826	44
0	201	66.64236028275	45
0	203	67.779286100916	46
0	205	68.891796436548	47
0	213	69.964079692183	48
0	221	71.901214197665	49
0	223	72.905135094808	50
0	227	74.367464457094	51
0	233	75.676259021662	52
0	237	77.593770830348	53
0	241	78.683912552815	54
0	251	80.245381016905	55
0	253	81.907683452048	56
0	257	83.491226983645	57
0	265	85.395603605469	58
0	267	87.010423054376	59
0	273	88.145168700411	60
0	275	89.636956337995	61
0	279	91.568370605509	62
0	281	93.068332059697	63
0	285	94.477967548805	64
0	293	95.993739226988	65
0	295	97.132921026476	66
0	301	98.86247561515	67
0	303	100.178752120972	68
0	309	101.932607570818	69
0	317	103.159588590186	70
0	319	104.467005202701	71
0	321	106.464409190617	72
0	325	107.759041749095	73
0	327	109.023302258379	74
0	337	110.445668204609	75
0	339	112.173396876003	76
0	349	113.863182170005	77
0	351	114.879665788184	78
0	353	116.19303241434	79
0	355	118.183149334429	80
0	357	120.067191721326	81
0	359	121.087134081092	82
0	361	122.189929321561	83
0	363	123.284009964125	84
0	365	124.549807290233	85
0	371	125.744754977909	86
0	381	126.832865543583	87
0	383	128.823529257359	88
0	387	130.570777700435	89
0	389	132.186139715289	90
0	393	133.381370873343	91
0	399	135.328808006517	92
0	401	137.300511327724	93
0	403	138.344433835859	94
0	407	139.629678429489	95
0	409	141.092528187589	96
0	411	142.517320443795	97
0	413	144.272969732911	98
0	415	145.524468199036	99
0	417	147.387815321482	100
0	421	148.975449727767	101
0	427	150.000851429219	102
0	431	151.262693650241	103
0	441	152.370684843429	104
0	451	154.295871956425	105
0	453	156.032982831972	106
0	457	157.861090887023	107
0	459	158.972965203376	108
0	465	160.523240428335	109
0	467	162.359114965807	110
0	469	163.888187348527	111
0	471	165.301228391855	112
0	473	166.363795297603	113
0	475	167.559819691033	114
0	477	169.01364892969	115
0	481	170.363380027386	116
0	487	172.232805945129	117
0	489	173.52364579836	118
0	491	175.269473362398	119
0	495	177.221141954568	120
0	497	178.541506607235	121
0	503	180.04636645984	122
0	507	181.581386626382	123
0	509	183.154670230495	124
0	511	184.556369319009	125
0	515	186.354463362284	126
0	521	187.661868249681	127
0	523	189.068624075884	128
0	525	190.933718532007	129
0	527	192.663933863314	130
0	531	194.260437140158	131
0	535	195.925693913745	132
0	537	197.546263164059	133
0	541	198.615232598186	134
1	3	0.205631491707	0
1	13	2.106899673373	1
1	21	6.84747178759	2
1	25	8.484869440801	3
1	31	10.069450008181	4
1	39	14.340168344807	5
1	43	15.967825171216	6
1	53	18.429726677011	7
1	57	19.51205084175	8
1	61	21.379810618345	9
1	71	24.322668332754	10
1	79	25.553764757658	11
1	83	26.792620997628	12
1	91	30.006064803267	13
1	97	31.354347779399	14
1	105	32.4512562373	15
1	113	35.902019152327	16
1	117	37.579115447797	17
1	121	38.878298593446	18
1	127	42.495388967881	19
1	137	43.853510153073	20
1	141	44.93548436336	21
1	151	46.030008497623	22
1	155	48.002209898599	23
1	159	49.564273594928	24
1	165	52.469405621108	25
1	175	53.770212134876	26
1	187	57.028677817393	27
1	197	63.403339872761	28
1	207	68.903943715646	29
1	215	69.981064266187	30
1	225	72.916707041709	31
1	229	74.39145671653	32
1	235	75.713095869474	33
1	239	77.6059437463	34
1	243	78.69401736692	35
1	255	81.930661270702	36
1	259	83.501395573432	37
1	269	87.026809039478	38
1	277	89.674428485273	39
1	283	93.094983527827	40
1	287	94.494694900852	41
1	297	97.151253038427	42
1	305	100.192026499833	43
1	311	101.957478518231	44
1	323	106.485438775364	45
1	329	109.054264303267	46
1	341	112.189404756646	47
1	367	124.564818293137	48
1	373	125.759500638379	49
1	385	128.834405559034	50
1	391	132.200933538245	51
1	395	133.394054611111	52
1	405	138.357587302508	53
1	419	147.410130298921	54
1	423	148.986915664699	55
1	429	150.012890494118	56
1	433	151.273643268617	57
1	443	152.382675129496	58
1	455	156.047910238951	59
1	461	158.998667403203	60
1	479	169.025676458155	61
1	483	170.377724970147	62
1	493	175.290343804938	63
1	499	178.552457129567	64
1	505	180.059854138175	65
1	513	184.570764011388	66
1	517	186.36590058932	67
1	529	192.690816855931	68
1	533	194.272032908964	69
1	539	197.579211751684	70
2	5	0.234984622813	0
2	27	8.504136183777	1
2	45	16.006830091232	2
2	63	21.407844286535	3
2	73	24.334661633739	4
2	85	26.804114716178	5
2	93	30.020508417429	6
2	99	31.36483343899	7
2	129	42.518610570033	8
2	143	44.961935871623	9
2	167	52.505908425885	10
2	177	53.79072296719	11
2	209	68.91397302451	12
2	217	70.004827501087	13
2	231	74.415536367099	14
2	245	78.70662967569	15
2	261	83.534095964016	16
2	271	87.046875831005	17
2	289	94.525127319447	18
2	299	97.183415987635	19
2	307	100.20330002434	20
2	313	101.982974119806	21
2	331	109.07334648449	22
2	343	112.206029076892	23
2	369	124.590398733513	24
2	375	125.774470984267	25
2	397	133.409259317891	26
2	425	149.004821188548	27
2	435	151.291140748817	28
2	445	152.402907235217	29
2	463	159.0709063767	30
2	485	170.389530143301	31
2	501	178.572461751184	32
2	519	186.397883785431	33
3	7	0.254376010482	0
3	47	16.022742302401	1
3	65	21.4208684823	2
3	75	24.348461306604	3
3	101	31.401341632984	4
3	131	42.540616389828	5
3	145	44.97299370464	6
3	169	52.517288816498	7
3	179	53.828415546766	8
3	211	68.944911906994	9
3	219	70.021525149835	10
3	247	78.717005256841	11
3	263	83.55110576143	12
3	291	94.557964145968	13
3	315	102.003493079242	14
3	333	109.086638645758	15
3	345	112.221224605584	16
3	377	125.78807161032	17
3	437	151.303426222243	18
3	447	152.413966955919	19
4	9	0.273478008816	0
4	133	42.561688174795	1
4	147	44.98365778868	2
4	171	52.545075399121	3
4	181	53.84110940702	4
4	249	78.7278868217	5
4	335	109.110471315819	6
4	347	112.261583987776	7
4	379	125.804373943946	8
4	439	151.316891499124	9
4	449	152.429696998653	10
5	348	112.271583987776	0
5	380	125.814373943946	1
5	440	151.326891499124	2
5	450	152.439696998653	3

