version 2
run General-3-20231004-17:52:31-8419
attr configname General
attr datetime 20231004-17:52:31
attr experiment General
attr inifile omnetpp.ini
attr iterationvars ""
attr iterationvarsf ""
attr measurement ""
attr network Multihop
attr processid 8419
attr repetition 3
attr replication #3
attr resultdir results
attr runnumber 3
attr seedset 3
param Multihop.node[*].transmissionTime "uniform(1s, 2s)"
param Multihop.node[*].delayTime "uniform(0.01s, 0.2s)"
param Multihop.node[*].processingTime exponential(0.01s)
param Multihop.node[*].lossProbability 0.50

vector 0 Multihop.node[0] txVector ETV
vector 1 Multihop.node[1] txVector ETV
vector 2 Multihop.node[2] txVector ETV
vector 3 Multihop.node[3] txVector ETV
vector 4 Multihop.node[4] txVector ETV
vector 5 Multihop.node[5] rxVector ETV
0	1	0.114651601831	0
0	5	1.185376482154	1
0	13	2.306705061416	2
0	15	3.347335798968	3
0	17	4.5952241007	4
0	19	5.688775596278	5
0	21	7.38359925344	6
0	23	8.528969400864	7
0	27	9.982141700409	8
0	33	11.33604677331	9
0	37	13.101873147835	10
0	39	14.504233790164	11
0	41	16.057005738675	12
0	45	17.363366365734	13
0	47	18.638286473298	14
0	53	20.092894238255	15
0	55	21.350479530006	16
0	57	23.243544636363	17
0	67	24.961966661572	18
0	69	26.360957617707	19
0	71	27.785659227589	20
0	77	29.199377911234	21
0	79	30.222495479811	22
0	81	31.538262728205	23
0	83	33.101032824557	24
0	85	34.849190261284	25
0	87	36.458813925343	26
0	89	37.662168454215	27
0	95	39.315799306681	28
0	97	41.127027063001	29
0	99	42.501151791144	30
0	101	43.576351904845	31
0	103	45.336930395173	32
0	107	46.400700196926	33
0	109	48.093333944049	34
0	111	49.539234384731	35
0	121	50.9015748434	36
0	125	52.745361938677	37
0	129	54.285481540091	38
0	131	55.807085876889	39
0	133	56.949685223238	40
0	135	58.251948836795	41
0	139	60.058971511736	42
0	147	61.080197251938	43
0	151	62.998227274349	44
0	153	64.923960058788	45
0	155	66.201283107815	46
0	157	67.37734522305	47
0	159	69.367646411597	48
0	161	71.060297027999	49
0	165	72.812437058031	50
0	175	73.898437773413	51
0	183	75.323167724139	52
0	193	77.123771234951	53
0	195	78.407178606908	54
0	199	80.289087054623	55
0	201	82.117109171651	56
0	211	83.350801180886	57
0	213	84.82018249326	58
0	215	86.322712709499	59
0	221	87.495075608907	60
0	223	89.381973736291	61
0	225	90.885229026503	62
0	227	92.4574666464	63
0	229	93.799886233243	64
0	235	95.409531947994	65
0	237	97.409507411835	66
0	239	98.677455166658	67
0	241	99.934661544697	68
0	247	101.211303091446	69
0	249	103.046549402015	70
0	255	104.192865624396	71
0	257	105.739996378614	72
0	259	107.231811926771	73
0	261	108.361470310787	74
0	269	110.221523773695	75
0	271	112.212819494611	76
0	277	113.370489250008	77
0	279	114.710495175166	78
0	283	116.407245162945	79
0	287	118.224280523905	80
0	295	119.305851566443	81
0	299	120.400732900319	82
0	301	121.939196592034	83
0	303	123.588769850624	84
0	307	124.898731485312	85
0	315	126.395396439894	86
0	317	128.393208839768	87
0	319	129.552855998115	88
0	327	131.372398081771	89
0	329	133.086002625828	90
0	335	134.324438923574	91
0	337	136.252937770053	92
0	343	137.616014049691	93
0	345	139.218504580739	94
0	347	140.449965611403	95
0	351	141.893553290353	96
0	359	143.675937269418	97
0	365	144.781596473953	98
0	373	146.751025643502	99
0	375	147.773121457849	100
0	379	148.995497777429	101
0	383	150.778255307884	102
0	391	152.255187072163	103
0	393	154.058015042288	104
0	395	155.958785847366	105
0	399	157.319869622426	106
0	401	158.625996918721	107
0	403	159.909686368495	108
0	407	161.122580704117	109
0	409	162.248401743896	110
0	411	164.241325300956	111
0	413	165.674859592296	112
0	419	167.291564879078	113
0	423	168.745876659942	114
0	425	170.534465796151	115
0	429	172.151919978275	116
0	431	173.276541728363	117
0	433	174.307470924756	118
0	435	175.539569314173	119
0	437	176.552324805478	120
0	439	177.826962275034	121
0	441	179.768876638565	122
0	443	181.045644554844	123
0	453	182.121432759635	124
0	455	183.736622215783	125
0	457	184.917362544754	126
0	459	186.661191955976	127
0	463	188.026673628086	128
0	465	189.819996306276	129
0	469	191.454299775953	130
0	471	193.092352657415	131
0	475	194.747486568358	132
0	477	196.278949698735	133
0	485	197.457488532713	134
0	487	198.7837525381	135
1	3	0.14297423212	0
1	7	1.203800179986	1
1	25	8.541397469655	2
1	29	9.998926964697	3
1	35	11.382408987226	4
1	43	16.07583961812	5
1	49	18.662460825557	6
1	59	23.253752935832	7
1	73	27.811130363207	8
1	91	37.683035872418	9
1	105	45.365321494943	10
1	113	49.556493043591	11
1	123	50.918294401631	12
1	127	52.772856301798	13
1	137	58.265798038405	14
1	141	60.075557922035	15
1	149	61.09251614548	16
1	163	71.07153246058	17
1	167	72.833391967909	18
1	177	73.925573583373	19
1	185	75.337474402933	20
1	197	78.425061598207	21
1	203	82.129376642616	22
1	217	86.336256725567	23
1	231	93.811171584961	24
1	243	99.947561612563	25
1	251	103.110460693381	26
1	263	108.373934405725	27
1	273	112.229180850922	28
1	281	114.734294629535	29
1	285	116.436065634744	30
1	289	118.237957647781	31
1	297	119.321058625579	32
1	305	123.617180635976	33
1	309	124.920896653509	34
1	321	129.566458501273	35
1	331	133.107964843851	36
1	339	136.279035015945	37
1	349	140.470267906843	38
1	353	141.919340547891	39
1	361	143.691717661292	40
1	367	144.804331533375	41
1	377	147.7875336091	42
1	381	149.011465265964	43
1	385	150.795517917321	44
1	397	155.990333074675	45
1	405	159.92513823606	46
1	415	165.723528776585	47
1	421	167.306642131946	48
1	427	170.553419066414	49
1	445	181.058851459432	50
1	461	186.686187125632	51
1	467	189.844294219898	52
1	473	193.102357446717	53
1	479	196.303608863603	54
2	9	1.219546036734	0
2	31	10.033380146212	1
2	51	18.689474752837	2
2	61	23.265292811608	3
2	75	27.833632825758	4
2	93	37.713520888046	5
2	115	49.572605622461	6
2	143	60.08582163147	7
2	169	72.847390347978	8
2	179	73.944043206587	9
2	187	75.362290950429	10
2	205	82.171157877014	11
2	219	86.349387508385	12
2	233	93.821568541437	13
2	245	99.98036368895	14
2	253	103.124857053136	15
2	265	108.401325965541	16
2	275	112.251471415664	17
2	291	118.256189893624	18
2	311	124.942256152157	19
2	323	129.577578120788	20
2	333	133.118223437477	21
2	341	136.301748820966	22
2	355	141.934135898928	23
2	363	143.720974957871	24
2	369	144.819609408962	25
2	387	150.81011417819	26
2	417	165.737001038313	27
2	447	181.111557278548	28
2	481	196.313862300994	29
3	11	1.229735296555	0
3	63	23.279227774476	1
3	117	49.599127105651	2
3	145	60.102865210491	3
3	171	72.861879043219	4
3	181	73.975338834671	5
3	189	75.394972464197	6
3	207	82.195688748819	7
3	267	108.474998457808	8
3	293	118.291429747224	9
3	313	124.962021964741	10
3	325	129.590951104363	11
3	357	141.949376983411	12
3	371	144.831108067014	13
3	389	150.823158085034	14
3	449	181.127049901563	15
3	483	196.324543696392	16
4	65	23.305778886844	0
4	119	49.612929239978	1
4	173	72.879346864828	2
4	191	75.420377663565	3
4	209	82.207774387947	4
4	451	181.150149145336	5
5	66	23.315778886844	0
5	192	75.430377663565	1
5	210	82.217774387947	2

