version 2
run General-2-20231004-17:52:31-8419
attr configname General
attr datetime 20231004-17:52:31
attr experiment General
attr inifile omnetpp.ini
attr iterationvars ""
attr iterationvarsf ""
attr measurement ""
attr network Multihop
attr processid 8419
attr repetition 2
attr replication #2
attr resultdir results
attr runnumber 2
attr seedset 2
param Multihop.node[*].transmissionTime "uniform(1s, 2s)"
param Multihop.node[*].delayTime "uniform(0.01s, 0.2s)"
param Multihop.node[*].processingTime exponential(0.01s)
param Multihop.node[*].lossProbability 0.50

vector 0 Multihop.node[0] txVector ETV
vector 1 Multihop.node[1] txVector ETV
vector 2 Multihop.node[2] txVector ETV
vector 3 Multihop.node[3] txVector ETV
vector 4 Multihop.node[4] txVector ETV
vector 5 Multihop.node[5] rxVector ETV
0	1	0.092839031499	0
0	3	1.277921112972	1
0	7	3.20946197656	2
0	9	4.694211072773	3
0	11	6.014747509053	4
0	13	7.169174184576	5
0	17	8.86803687389	6
0	19	10.35321278872	7
0	25	11.98595051935	8
0	29	13.484511686974	9
0	35	15.204265917904	10
0	39	16.611573750406	11
0	43	18.581206158056	12
0	45	19.869074977954	13
0	47	20.985268300652	14
0	49	22.166995337951	15
0	53	23.661285105879	16
0	55	24.883120273026	17
0	57	26.650611449518	18
0	59	28.227919519665	19
0	61	29.395742834099	20
0	63	30.763214203082	21
0	67	32.231887785504	22
0	71	34.024977528509	23
0	77	35.638007222228	24
0	87	36.786572002592	25
0	91	38.10186948373	26
0	93	39.911044768775	27
0	103	41.264720142139	28
0	105	43.212810565503	29
0	109	45.035695200571	30
0	111	46.256693355058	31
0	113	48.003324768058	32
0	115	49.434862538026	33
0	125	51.323166284495	34
0	127	52.804188039637	35
0	129	54.764501769579	36
0	133	56.19052429662	37
0	135	57.952454295493	38
0	139	59.885082856304	39
0	143	61.402513617435	40
0	145	62.956147463312	41
0	147	64.52978996166	42
0	153	65.923723252974	43
0	155	67.652221755376	44
0	159	69.007975379256	45
0	163	70.370002785949	46
0	167	71.733328677267	47
0	169	73.500816935925	48
0	171	75.415292507755	49
0	173	77.241660513468	50
0	179	78.653406954156	51
0	181	80.035099892663	52
0	183	81.997559468281	53
0	189	83.644573694114	54
0	191	84.873959658221	55
0	197	86.753161688587	56
0	203	88.285306129391	57
0	213	89.762149535604	58
0	219	90.977955932981	59
0	221	92.532495406476	60
0	225	94.427641145206	61
0	235	96.405274536014	62
0	239	98.243105083956	63
0	245	99.564423667519	64
0	247	101.500671710838	65
0	249	102.96441431881	66
0	251	104.816703279056	67
0	253	106.029470650033	68
0	257	107.02959423421	69
0	259	108.204710623269	70
0	261	109.719569790429	71
0	263	111.599560141583	72
0	265	113.384352064478	73
0	267	114.914173240327	74
0	269	116.188011109848	75
0	277	117.214395256034	76
0	279	118.719806891187	77
0	283	120.054901555433	78
0	287	121.274191528346	79
0	295	122.994539552388	80
0	297	124.807321504011	81
0	301	126.353194207206	82
0	303	127.369304472368	83
0	305	129.304340200286	84
0	309	130.694925880313	85
0	311	132.514391255818	86
0	313	133.604761633809	87
0	315	134.963001941583	88
0	319	135.981987069613	89
0	323	137.012355321572	90
0	327	138.014937896068	91
0	333	139.602112097452	92
0	335	140.964539479716	93
0	337	142.837666819822	94
0	339	144.322720586108	95
0	345	146.066582616204	96
0	347	147.801934010367	97
0	349	148.987523746462	98
0	359	150.119615504536	99
0	361	151.362782293483	100
0	363	153.042809547642	101
0	369	154.71994929064	102
0	373	156.666643414199	103
0	377	158.403243951518	104
0	379	159.568111093966	105
0	383	161.395564444381	106
0	387	162.749736866932	107
0	389	163.781541744265	108
0	391	164.84927698343	109
0	401	166.477458202065	110
0	405	167.859120779456	111
0	407	169.639422650234	112
0	409	171.065397399961	113
0	419	172.411495549156	114
0	425	174.104114418867	115
0	427	175.523021731078	116
0	429	176.591620918149	117
0	435	177.689168988746	118
0	443	178.970028979257	119
0	449	180.727033618856	120
0	451	181.997211378785	121
0	453	183.863391620591	122
0	455	185.837390986755	123
0	465	187.593403993891	124
0	467	188.988618052815	125
0	471	190.587164434389	126
0	477	191.7616072579	127
0	481	192.763147993264	128
0	483	194.188787237759	129
0	487	196.153184136627	130
0	489	197.8982223971	131
0	495	199.237885668194	132
1	5	1.317434556699	0
1	15	7.180451956305	1
1	21	10.380262739661	2
1	27	12.004788681654	3
1	31	13.497502462274	4
1	37	15.216213721857	5
1	41	16.625097995446	6
1	51	22.18533703512	7
1	65	30.783835064206	8
1	69	32.252766342853	9
1	73	34.081919725184	10
1	79	35.667131659052	11
1	89	36.799565948846	12
1	95	39.927352926425	13
1	107	43.230049498286	14
1	117	49.473197533362	15
1	131	54.778400751866	16
1	137	57.974875101214	17
1	141	59.916665245157	18
1	149	64.565901022751	19
1	157	67.66461617746	20
1	161	69.039037365768	21
1	165	70.386998602666	22
1	175	77.261625836665	23
1	185	82.039223647423	24
1	193	84.892936712438	25
1	199	86.797673100968	26
1	205	88.30077304746	27
1	215	89.788611132435	28
1	223	92.568965884261	29
1	227	94.462617262	30
1	237	96.422963026041	31
1	241	98.25816767781	32
1	255	106.040445634682	33
1	271	116.218390929459	34
1	281	118.731570629179	35
1	285	120.08301205797	36
1	289	121.284720138732	37
1	299	124.817505893953	38
1	307	129.338492758127	39
1	317	134.97898079746	40
1	321	135.995139027134	41
1	325	137.028042445458	42
1	329	138.073201364164	43
1	341	144.346752182035	44
1	351	148.997623966046	45
1	365	153.074509987151	46
1	371	154.733427061884	47
1	375	156.683097255749	48
1	381	159.585869814662	49
1	385	161.424015900258	50
1	393	164.869354015124	51
1	403	166.520919799731	52
1	411	171.08314493431	53
1	421	172.425709053732	54
1	431	176.604186579284	55
1	437	177.700506800919	56
1	445	178.985291750556	57
1	457	185.876845816871	58
1	469	189.000248966861	59
1	473	190.598774063162	60
1	479	191.77202870656	61
1	485	194.20080456111	62
1	491	197.918751872566	63
1	497	199.261758747467	64
2	23	10.401752094778	0
2	33	13.515403610568	1
2	75	34.093192206058	2
2	81	35.684255486686	3
2	97	39.940557365763	4
2	119	49.490189432372	5
2	151	64.575956621235	6
2	177	77.275809996848	7
2	187	82.065492140026	8
2	195	84.918362557191	9
2	201	86.816228668897	10
2	207	88.319910486551	11
2	217	89.814616934445	12
2	229	94.473025598978	13
2	243	98.271417215124	14
2	273	116.231612807035	15
2	291	121.304482465946	16
2	331	138.088919882068	17
2	343	144.360663118809	18
2	353	149.012292708235	19
2	367	153.086177213794	20
2	395	164.894039345194	21
2	413	171.098787442761	22
2	423	172.444284061037	23
2	433	176.633921384114	24
2	439	177.711278428263	25
2	447	179.009418145572	26
2	459	185.888870465051	27
2	475	190.608907317404	28
2	493	197.938999448846	29
2	499	199.277811544778	30
3	83	35.696705160362	0
3	99	39.966562166745	1
3	121	49.512297461031	2
3	209	88.331037387821	3
3	231	94.496224018988	4
3	275	116.243181805753	5
3	293	121.317854960856	6
3	355	149.022401304997	7
3	397	164.909862357833	8
3	415	171.124049124686	9
3	441	177.725221399291	10
3	461	185.942535821947	11
4	85	35.75671145345	0
4	101	39.993389697337	1
4	123	49.534557668605	2
4	211	88.345635664292	3
4	233	94.528893677212	4
4	357	149.051270493787	5
4	399	164.939414676313	6
4	417	171.14505508224	7
4	463	185.952948415629	8
5	124	49.544557668605	0
5	358	149.061270493787	1
5	400	164.949414676313	2
5	418	171.15505508224	3

