version 2
run General-1-20231004-17:52:31-8419
attr configname General
attr datetime 20231004-17:52:31
attr experiment General
attr inifile omnetpp.ini
attr iterationvars ""
attr iterationvarsf ""
attr measurement ""
attr network Multihop
attr processid 8419
attr repetition 1
attr replication #1
attr resultdir results
attr runnumber 1
attr seedset 1
param Multihop.node[*].transmissionTime "uniform(1s, 2s)"
param Multihop.node[*].delayTime "uniform(0.01s, 0.2s)"
param Multihop.node[*].processingTime exponential(0.01s)
param Multihop.node[*].lossProbability 0.50

vector 0 Multihop.node[0] txVector ETV
vector 1 Multihop.node[1] txVector ETV
vector 2 Multihop.node[2] txVector ETV
vector 3 Multihop.node[3] txVector ETV
vector 4 Multihop.node[4] txVector ETV
vector 5 Multihop.node[5] rxVector ETV
0	1	0.089234179703	0
0	5	2.086418987836	1
0	7	3.214543435608	2
0	9	5.213583951003	3
0	11	6.449672927267	4
0	13	7.846253653408	5
0	15	9.234164393625	6
0	17	10.903910433992	7
0	21	12.839449506604	8
0	25	14.152723019595	9
0	29	15.596175913351	10
0	33	17.130589820562	11
0	37	18.587794629742	12
0	39	20.526922424675	13
0	45	22.305311660168	14
0	53	23.398112470403	15
0	55	25.227715835094	16
0	57	26.500765812469	17
0	61	27.560009009556	18
0	63	29.153074526346	19
0	71	30.824728618028	20
0	77	31.966848750949	21
0	85	33.00102006097	22
0	89	34.447154561641	23
0	91	35.520518735867	24
0	95	36.989757260658	25
0	97	38.893127431978	26
0	99	40.012617905742	27
0	101	41.537417288755	28
0	105	42.621040294065	29
0	107	44.53148867388	30
0	109	45.830418784756	31
0	111	47.414807908589	32
0	115	48.980719937131	33
0	121	50.93725559593	34
0	123	52.470704088805	35
0	127	54.420642222397	36
0	129	55.961242730848	37
0	139	57.726727838048	38
0	143	59.609853309698	39
0	145	61.057833492642	40
0	149	62.949969361189	41
0	151	64.488394055867	42
0	155	66.140692934047	43
0	165	67.711701496157	44
0	167	69.065640587944	45
0	169	70.828873645167	46
0	173	72.18540536205	47
0	181	74.066747191015	48
0	185	75.853698664929	49
0	189	77.209009028158	50
0	191	78.588812318283	51
0	197	80.351732385463	52
0	201	82.124471528807	53
0	207	83.703105460738	54
0	213	85.173746265822	55
0	221	86.44274731551	56
0	223	87.915222356913	57
0	229	89.65798718401	58
0	239	90.888349988151	59
0	241	92.060628345122	60
0	243	93.456941633371	61
0	245	94.5643069417	62
0	247	96.074117219892	63
0	257	97.176252452309	64
0	259	98.40987497999	65
0	267	99.50143142033	66
0	271	101.314426391969	67
0	275	103.031817993965	68
0	283	104.458727817634	69
0	285	105.820632267162	70
0	287	106.973970751162	71
0	289	108.911161077093	72
0	291	110.827570950264	73
0	293	112.609529412934	74
0	299	114.225858355756	75
0	301	115.355627968558	76
0	307	116.64998744044	77
0	309	117.723956438364	78
0	313	118.876093595638	79
0	321	120.814805293572	80
0	323	122.113485536422	81
0	329	123.317843660596	82
0	331	125.077192459838	83
0	333	126.728313025204	84
0	335	127.767996527139	85
0	341	129.581872888958	86
0	347	131.113699335257	87
0	355	132.62248807389	88
0	357	133.754755348551	89
0	359	135.518996961067	90
0	363	136.731730655885	91
0	367	137.82714990026	92
0	369	139.183613582166	93
0	373	140.278921393795	94
0	381	142.209934322281	95
0	383	143.534451822635	96
0	393	145.262463462889	97
0	395	146.689274306759	98
0	405	148.417831703439	99
0	409	149.425834414201	100
0	411	150.720345960815	101
0	421	151.887297553361	102
0	425	153.496504541604	103
0	427	154.851081775386	104
0	429	155.929601744866	105
0	433	157.622786942987	106
0	439	159.082332223771	107
0	441	160.554415649386	108
0	443	161.659806899611	109
0	445	163.162882809412	110
0	449	165.04857267032	111
0	459	166.330049435958	112
0	461	168.295776240878	113
0	467	169.725744137425	114
0	469	170.852270295728	115
0	473	172.80231360288	116
0	477	174.755144727301	117
0	481	176.003844927183	118
0	487	177.239113253892	119
0	493	178.430373523968	120
0	495	179.446246503737	121
0	501	180.495957518812	122
0	505	182.363474973595	123
0	515	183.618177720929	124
0	517	184.965867737426	125
0	527	186.665751767695	126
0	531	188.566280314816	127
0	535	189.830483619008	128
0	537	191.190299813054	129
0	539	192.430517445668	130
0	541	193.453686175985	131
0	543	194.985354282545	132
0	547	196.115549000563	133
0	553	197.283379799338	134
0	555	198.557280124282	135
0	557	199.567279851647	136
1	3	0.126198958082	0
1	19	10.932638670661	1
1	23	12.856884403511	2
1	27	14.165331178094	3
1	31	15.630705578153	4
1	35	17.146223272875	5
1	41	20.549509196787	6
1	47	22.322612937219	7
1	59	26.521868452778	8
1	65	29.168381202807	9
1	73	30.850021699615	10
1	79	31.986631209765	11
1	87	33.013531949525	12
1	93	35.531529900754	13
1	103	41.572289742702	14
1	113	47.434325489841	15
1	117	48.993744226296	16
1	125	52.487497707042	17
1	131	55.971706791046	18
1	141	57.74451027524	19
1	147	61.072574964183	20
1	153	64.502876649821	21
1	157	66.160849528574	22
1	171	70.852848749443	23
1	175	72.195522740187	24
1	183	74.077409308371	25
1	187	75.892143714608	26
1	193	78.613578667182	27
1	199	80.363392102798	28
1	203	82.134562016935	29
1	209	83.727569835972	30
1	215	85.201565897291	31
1	225	87.927353745519	32
1	231	89.675084982152	33
1	249	96.087524080573	34
1	261	98.428316230996	35
1	269	99.514852943733	36
1	273	101.333918356583	37
1	277	103.0557561384	38
1	295	112.619896046924	39
1	303	115.370103578239	40
1	311	117.735719259032	41
1	315	118.890731964789	42
1	325	122.163525074695	43
1	337	127.792375483648	44
1	343	129.593030769944	45
1	349	131.126128338064	46
1	361	135.529768562765	47
1	365	136.743500480372	48
1	371	139.195159825165	49
1	375	140.297515400256	50
1	385	143.551848690547	51
1	397	146.713393932254	52
1	407	148.453916111358	53
1	413	150.730589929037	54
1	423	151.897652247275	55
1	431	155.939729686503	56
1	435	157.665310560011	57
1	447	163.180526606496	58
1	451	165.062951283044	59
1	463	168.310027132614	60
1	471	170.866033400822	61
1	475	172.81477763811	62
1	479	174.785081168275	63
1	483	176.030724331687	64
1	489	177.258000980796	65
1	497	179.461345019576	66
1	503	180.521382895492	67
1	507	182.374333329643	68
1	519	184.987824791356	69
1	529	186.675798509895	70
1	533	188.58257973476	71
1	545	195.003597301315	72
1	549	196.131014819794	73
1	559	199.577604631292	74
2	43	20.575742410379	0
2	49	22.35263924199	1
2	67	29.180582071254	2
2	75	30.86534115116	3
2	81	32.007438021665	4
2	119	49.006371069932	5
2	133	55.983214626	6
2	159	66.172199881011	7
2	177	72.212416464714	8
2	195	78.627164871255	9
2	205	82.156907798409	10
2	211	83.743869544691	11
2	217	85.219580460764	12
2	227	87.943595770095	13
2	233	89.687424099209	14
2	251	96.100160591518	15
2	263	98.443727817159	16
2	279	103.071339026204	17
2	297	112.640518573905	18
2	305	115.383314521239	19
2	317	118.901245088098	20
2	327	122.195876321741	21
2	339	127.80845036277	22
2	345	129.604609394218	23
2	351	131.160950684623	24
2	377	140.325819065152	25
2	387	143.57519753685	26
2	399	146.728462455481	27
2	415	150.746604758275	28
2	437	157.679377997571	29
2	453	165.0956119102	30
2	465	168.328632562628	31
2	485	176.048574703059	32
2	491	177.268494320268	33
2	499	179.479946580477	34
2	509	182.386050184804	35
2	521	184.998601422274	36
2	551	196.152556743419	37
2	561	199.614918668793	38
3	51	22.380308754176	0
3	69	29.194001759419	1
3	83	32.020983298439	2
3	135	56.008936219688	3
3	161	66.19391831267	4
3	179	72.223183029308	5
3	219	85.230307044018	6
3	235	89.697929711104	7
3	253	96.144477546789	8
3	265	98.458313995943	9
3	281	103.086931876797	10
3	319	118.92475264448	11
3	353	131.177152487061	12
3	379	140.345581917468	13
3	389	143.587005637201	14
3	401	146.764391843856	15
3	417	150.773125015848	16
3	455	165.108375891778	17
3	511	182.398400990969	18
3	523	185.008972935734	19
3	563	199.640155492932	20
4	137	56.019238764138	0
4	163	66.2143524368	1
4	237	89.715245719992	2
4	255	96.157739265268	3
4	391	143.608623020842	4
4	403	146.776667254891	5
4	419	150.787719639353	6
4	457	165.118617631202	7
4	513	182.413803239978	8
4	525	185.034550874993	9
4	565	199.657445184627	10
5	138	56.029238764138	0
5	164	66.2243524368	1
5	404	146.786667254891	2
5	458	165.128617631202	3
5	514	182.423803239978	4
5	526	185.044550874993	5

