version 2
run General-0-20231004-17:52:31-8419
attr configname General
attr datetime 20231004-17:52:31
attr experiment General
attr inifile omnetpp.ini
attr iterationvars ""
attr iterationvarsf ""
attr measurement ""
attr network Multihop
attr processid 8419
attr repetition 0
attr replication #0
attr resultdir results
attr runnumber 0
attr seedset 0
param Multihop.node[*].transmissionTime "uniform(1s, 2s)"
param Multihop.node[*].delayTime "uniform(0.01s, 0.2s)"
param Multihop.node[*].processingTime exponential(0.01s)
param Multihop.node[*].lossProbability 0.50

vector 0 Multihop.node[0] txVector ETV
vector 1 Multihop.node[1] txVector ETV
vector 2 Multihop.node[2] txVector ETV
vector 3 Multihop.node[3] txVector ETV
vector 4 Multihop.node[4] txVector ETV
vector 5 Multihop.node[5] rxVector ETV
0	1	0.114274565438	0
0	9	1.707119181827	1
0	13	3.330682878224	2
0	19	4.628217483479	3
0	29	6.105882595134	4
0	31	7.443278756765	5
0	33	9.091450633322	6
0	43	10.459692170684	7
0	45	12.260602923183	8
0	49	13.781080403671	9
0	53	15.501713055259	10
0	59	17.03908628349	11
0	61	18.512686706221	12
0	65	19.699019050764	13
0	69	20.915569407472	14
0	79	22.239710411595	15
0	81	23.689660401156	16
0	83	25.302723863002	17
0	87	27.205072441211	18
0	93	29.174881509811	19
0	95	30.533033680011	20
0	97	32.283719818879	21
0	99	33.891550485583	22
0	103	35.216597713137	23
0	107	36.850871766292	24
0	109	38.503662085234	25
0	111	40.138720962292	26
0	115	42.134020527898	27
0	117	43.54838911591	28
0	119	45.023086621034	29
0	121	46.646596727035	30
0	123	47.984604344544	31
0	127	49.659356666802	32
0	129	51.437702148527	33
0	131	53.387273199929	34
0	135	55.04980006798	35
0	139	56.672646161242	36
0	143	58.644591160192	37
0	151	60.154215531963	38
0	153	61.595926453433	39
0	155	63.575513183911	40
0	157	64.934957652892	41
0	159	66.41585118913	42
0	161	68.104512375387	43
0	163	69.984988268538	44
0	165	71.903223741407	45
0	171	73.120045874574	46
0	175	74.629014835533	47
0	181	76.550172447533	48
0	185	77.55952914928	49
0	189	79.206703287856	50
0	191	80.471433452172	51
0	195	81.86925420382	52
0	199	83.034194664405	53
0	203	84.180636427672	54
0	209	85.884373708469	55
0	217	87.640480399904	56
0	221	89.53203483073	57
0	227	90.981232562642	58
0	231	92.74825626526	59
0	241	94.423695342457	60
0	249	96.083363756612	61
0	253	97.702172317617	62
0	255	99.172304506023	63
0	259	100.888379039551	64
0	263	102.271841265569	65
0	265	104.150293456698	66
0	267	105.253156816662	67
0	277	106.345530703273	68
0	279	107.66652794702	69
0	283	108.887790629715	70
0	285	109.985050556325	71
0	293	111.969092791742	72
0	301	113.068661876563	73
0	305	114.973309620824	74
0	309	116.481625071103	75
0	317	118.260676089283	76
0	319	119.293898475664	77
0	323	121.276473432388	78
0	333	122.696548800059	79
0	335	124.461460498004	80
0	339	126.405584018753	81
0	343	127.744987834786	82
0	345	129.08397295124	83
0	347	130.263463219238	84
0	351	131.434449812008	85
0	353	133.309022774065	86
0	359	135.253142525053	87
0	361	137.036786773086	88
0	367	138.536813066883	89
0	377	140.529209462536	90
0	379	142.493699228234	91
0	381	144.04794166431	92
0	383	145.260332166293	93
0	385	146.482775389758	94
0	391	147.701524757623	95
0	393	149.671761442517	96
0	395	151.352306136704	97
0	397	152.43760170376	98
0	399	153.49402003836	99
0	401	154.981857744354	100
0	405	156.862862302997	101
0	407	158.480520222179	102
0	409	160.023018999101	103
0	411	161.87763258217	104
0	415	163.621467124513	105
0	423	165.298548700829	106
0	427	166.754563324229	107
0	429	167.891783745104	108
0	433	169.121003068128	109
0	435	171.025428045384	110
0	445	172.671212645091	111
0	449	174.096664182452	112
0	455	175.776543637348	113
0	461	177.565283058753	114
0	463	178.878975456191	115
0	467	180.83642631218	116
0	469	182.548010133749	117
0	471	183.701704437222	118
0	473	185.432146617753	119
0	475	187.078411052778	120
0	477	188.293291789323	121
0	483	189.479750007933	122
0	487	191.154597353034	123
0	491	192.329506225262	124
0	495	193.792656421738	125
0	497	194.997522183305	126
0	499	196.16248105474	127
0	501	197.287314115634	128
0	511	199.009394776385	129
1	3	0.142870607559	0
1	11	1.721970463464	1
1	15	3.341266724915	2
1	21	4.654939595482	3
1	35	9.132952332609	4
1	47	12.2819623126	5
1	51	13.799803615621	6
1	55	15.52592670206	7
1	63	18.536039608067	8
1	67	19.710471831037	9
1	71	20.927190772366	10
1	85	25.31376947526	11
1	89	27.225660782526	12
1	101	33.901942317147	13
1	105	35.258527179558	14
1	113	40.157440120828	15
1	125	47.998419902978	16
1	133	53.397409845713	17
1	137	55.070998211638	18
1	141	56.70369937425	19
1	145	58.655164429456	20
1	167	71.921552176568	21
1	173	73.154901698144	22
1	177	74.639882540356	23
1	183	76.578645724043	24
1	187	77.587941973995	25
1	193	80.48948142617	26
1	197	81.88387151278	27
1	201	83.052625494726	28
1	205	84.194039895054	29
1	211	85.899417146535	30
1	219	87.661876479539	31
1	223	89.580464896562	32
1	229	90.996539787608	33
1	233	92.761130370021	34
1	243	94.44131402017	35
1	251	96.099804803695	36
1	257	99.185701153349	37
1	261	100.912208831616	38
1	269	105.2675270968	39
1	281	107.678050883273	40
1	287	109.998066215457	41
1	295	111.983436248301	42
1	303	113.079044705692	43
1	307	114.985135006843	44
1	311	116.511644936058	45
1	321	119.308571201328	46
1	325	121.28699255791	47
1	337	124.485323411524	48
1	341	126.422308623921	49
1	349	130.279689192678	50
1	355	133.328394161242	51
1	363	137.047303602144	52
1	369	138.549922744933	53
1	387	146.501205177512	54
1	403	155.029324690492	55
1	413	161.894144889489	56
1	417	163.640807727839	57
1	425	165.332237882537	58
1	431	167.923119377979	59
1	437	171.039353775666	60
1	447	172.7028702819	61
1	451	174.112754628579	62
1	457	175.789150038642	63
1	465	178.895357342247	64
1	479	188.319772551055	65
1	485	189.492991999068	66
1	489	191.176787346486	67
1	493	192.357858859291	68
1	503	197.29762337855	69
1	513	199.032551038968	70
2	5	0.172386060918	0
2	17	3.354450286323	1
2	23	4.671478421154	2
2	37	9.144464641146	3
2	57	15.537046163666	4
2	73	20.939705191687	5
2	91	27.237535043186	6
2	147	58.671163898322	7
2	169	71.951584581793	8
2	179	74.653135944511	9
2	207	84.209718936589	10
2	213	85.932054482294	11
2	225	89.591700163036	12
2	235	92.774887758445	13
2	245	94.453934592587	14
2	271	105.285552616658	15
2	289	110.015766984052	16
2	297	111.999770874478	17
2	313	116.526944964839	18
2	327	121.301541676358	19
2	357	133.347473801515	20
2	365	137.069313311209	21
2	371	138.571288709886	22
2	389	146.517221967377	23
2	419	163.66334976054	24
2	439	171.056687452398	25
2	453	174.129359659376	26
2	459	175.820377505181	27
2	481	188.343519350593	28
2	505	197.321366808694	29
2	515	199.043017916404	30
3	7	0.20117570146	0
3	25	4.686467141244	1
3	39	9.174873563305	2
3	75	20.95459076218	3
3	149	58.681365799603	4
3	215	85.952241069594	5
3	237	92.818531462976	6
3	247	94.46895770057	7
3	273	105.295894650842	8
3	291	110.031707719035	9
3	299	112.028168202329	10
3	315	116.538452874941	11
3	329	121.311709354018	12
3	373	138.601260429561	13
3	421	163.679689060734	14
3	441	171.066688005917	15
3	507	197.332338485478	16
3	517	199.055364474897	17
4	27	4.714550833887	0
4	41	9.191290655032	1
4	77	20.987879895922	2
4	239	92.83741007708	3
4	275	105.340620005635	4
4	331	121.32433264711	5
4	375	138.625157200199	6
4	443	171.080425638855	7
4	509	197.344790466404	8
5	42	9.201290655032	0
5	78	20.997879895922	1
5	240	92.84741007708	2
5	276	105.350620005635	3
5	376	138.635157200199	4

