version 2
run General-0-20231008-05:32:59-14160
attr configname General
attr datetime 20231008-05:32:59
attr experiment General
attr inifile omnetpp.ini
attr iterationvars ""
attr iterationvarsf ""
attr measurement ""
attr network Reliability
attr processid 14160
attr repetition 0
attr replication #0
attr resultdir results
attr runnumber 0
attr seedset 0
param Reliability.node[*].transmissionTime "uniform(1s, 2s)"
param Reliability.node[*].delayTime "uniform(0.01s, 0.2s)"
param Reliability.node[*].processingTime exponential(0.01s)
param Reliability.node[*].lossProbability 0.1

vector 0 Reliability.node[0] txVector ETV
vector 1 Reliability.node[1] txVector ETV
vector 2 Reliability.node[3] txVector ETV
vector 3 Reliability.node[2] txVector ETV
vector 4 Reliability.node[4] txVector ETV
vector 5 Reliability.node[5] rxVector ETV
0	1	0.114274565438	0
0	17	1.707119181827	1
0	33	2.979775476344	2
0	49	4.348017013706	3
0	65	6.068649665294	4
0	81	7.285200022002	5
0	87	8.898263483848	6
0	103	10.868072552448	7
0	119	12.502346605603	8
0	135	14.125856711604	9
0	151	15.748702804866	10
0	167	17.190413726336	11
0	183	18.755602591979	12
0	199	20.59794467113	13
0	215	21.744386434397	14
0	231	23.383307514554	15
0	247	25.058746591751	16
0	263	26.453615883906	17
0	276	28.332068075035	18
0	292	29.984171349397	19
0	294	31.084398235967	20
0	310	33.003880848949	21
0	326	34.851889076251	22
0	342	36.71827140225	23
0	358	37.772609388296	24
0	374	38.804448312222	25
0	390	40.394358289967	26
0	406	41.884817091821	27
0	422	43.064420769297	28
0	438	44.281317750298	29
0	454	46.112366207948	30
0	470	47.327873885704	31
0	486	48.752559350876	32
0	502	49.884627460575	33
0	504	51.82505941212	34
0	517	53.590384664552	35
0	533	54.799541692555	36
0	549	56.503036477909	37
0	565	58.381906216804	38
0	567	60.155232231671	39
0	583	62.129490899693	40
0	599	63.557714726615	41
0	615	65.346587500607	42
0	627	67.299458171779	43
0	643	68.976869996244	44
0	645	70.568805160073	45
0	661	72.045282363964	46
0	677	73.554624429743	47
0	693	74.564312603397	48
0	709	76.447021890504	49
0	725	77.59085125786	50
0	738	78.683111427889	51
0	754	80.373136448047	52
0	770	82.332303050977	53
0	786	84.241146762461	54
0	802	86.090185068153	55
0	814	88.019476481551	56
0	827	89.25222061372	57
0	843	90.284685909819	58
0	859	91.330345551787	59
0	875	92.400792741055	60
0	891	94.22335218785	61
0	907	96.160636551749	62
0	923	97.650145873731	63
0	939	99.02439045657	64
0	955	100.762780794246	65
0	971	101.894632829657	66
0	987	102.994664881915	67
0	1003	104.574577282254	68
0	1019	106.46944047704	69
0	1035	108.358673802415	70
0	1051	109.99770118699	71
0	1067	111.022228587256	72
0	1083	112.99109268894	73
0	1099	114.445952565014	74
0	1115	115.475052573323	75
0	1131	117.01417080483	76
0	1147	118.556300260896	77
0	1163	119.802835052904	78
0	1175	121.138466031827	79
0	1177	122.656078134036	80
0	1193	124.130746118563	81
0	1209	125.728049055745	82
0	1225	127.037300343697	83
0	1241	128.630080615475	84
0	1257	130.078223445757	85
0	1273	131.160281191419	86
0	1289	132.485399102864	87
0	1305	133.696933006474	88
0	1321	134.793495889359	89
0	1337	135.893454401593	90
0	1353	137.293121773822	91
0	1369	138.617204468537	92
0	1385	140.148064595021	93
0	1401	142.085283422915	94
0	1417	143.718698249504	95
0	1433	144.941356182404	96
0	1449	146.368299595386	97
0	1465	148.239402124964	98
0	1481	149.790481272925	99
0	1497	151.375913344862	100
0	1513	152.704292290684	101
0	1515	154.130238241822	102
0	1531	155.224132711374	103
0	1547	157.124234837553	104
0	1563	158.870819124932	105
0	1579	160.171643049529	106
0	1595	162.049393836016	107
0	1601	163.723231181808	108
0	1617	164.730699498745	109
0	1633	166.384781426125	110
0	1649	167.996108847744	111
0	1665	169.344465597374	112
0	1674	171.198925623744	113
0	1690	172.248274569939	114
0	1706	174.130558238904	115
0	1722	175.824716086107	116
0	1738	177.748021389664	117
0	1754	179.239913621758	118
0	1770	180.597260502008	119
0	1786	181.941790964761	120
0	1802	183.509636969147	121
0	1818	184.857828911468	122
0	1827	185.973727383492	123
0	1843	187.360174786839	124
0	1859	188.924841320682	125
0	1875	190.162852594936	126
0	1891	192.155853908118	127
0	1907	193.65960172222	128
0	1923	195.360529790707	129
0	1939	197.145260359235	130
0	1955	199.04784056738	131
0	1971	200.87668147318	132
0	1987	202.237615940468	133
0	2003	203.933141481671	134
0	2019	205.299385804291	135
0	2035	206.522677472866	136
0	2051	208.306791822034	137
0	2067	209.977553479913	138
0	2083	211.228765441411	139
0	2099	212.681495938058	140
0	2115	213.747703114598	141
0	2131	214.870365096795	142
0	2133	215.931143252951	143
0	2149	217.835969957364	144
0	2165	218.962697630123	145
0	2181	220.206321150836	146
0	2197	221.99318118424	147
0	2213	223.11100092002	148
0	2215	225.080168674307	149
0	2231	226.653612613751	150
0	2247	227.70998477687	151
0	2263	228.911080794016	152
0	2279	230.323514343312	153
0	2295	231.392394803537	154
0	2311	232.612923102526	155
0	2320	234.401584064428	156
0	2332	236.152616359366	157
0	2348	237.743201736899	158
0	2364	239.727055563664	159
1	3	0.142870607559	0
1	3	0.142870607559	1
1	3	0.142870607559	2
1	19	1.72361364531	3
1	19	1.72361364531	4
1	19	1.72361364531	5
1	35	3.021277175631	6
1	35	3.021277175631	7
1	35	3.021277175631	8
1	51	4.366740225656	9
1	51	4.366740225656	10
1	51	4.366740225656	11
1	67	6.080102445567	12
1	67	6.080102445567	13
1	67	6.080102445567	14
1	83	7.318463532619	15
1	83	7.318463532619	16
1	83	7.318463532619	17
1	89	8.918851825163	18
1	89	8.918851825163	19
1	89	8.918851825163	20
1	105	10.910002018869	21
1	105	10.910002018869	22
1	105	10.910002018869	23
1	121	12.516471617902	24
1	121	12.516471617902	25
1	121	12.516471617902	26
1	137	14.147054855262	27
1	137	14.147054855262	28
1	137	14.147054855262	29
1	153	15.797618506094	30
1	153	15.797618506094	31
1	153	15.797618506094	32
1	169	17.220446131561	33
1	169	17.220446131561	34
1	169	17.220446131561	35
1	185	18.776020398521	36
1	185	18.776020398521	37
1	185	18.776020398521	38
1	201	20.616375501451	39
1	201	20.616375501451	40
1	201	20.616375501451	41
1	217	21.776601503382	42
1	217	21.776601503382	43
1	217	21.776601503382	44
1	233	23.396181619315	45
1	233	23.396181619315	46
1	233	23.396181619315	47
1	249	25.078391127406	48
1	249	25.078391127406	49
1	249	25.078391127406	50
1	265	26.464701354891	51
1	265	26.464701354891	52
1	265	26.464701354891	53
1	278	28.347714180046	54
1	278	28.347714180046	55
1	278	28.347714180046	56
1	296	31.106924311216	57
1	296	31.106924311216	58
1	296	31.106924311216	59
1	312	33.030348039962	60
1	312	33.030348039962	61
1	312	33.030348039962	62
1	328	34.89898868217	63
1	328	34.89898868217	64
1	328	34.89898868217	65
1	344	36.730502794331	66
1	344	36.730502794331	67
1	344	36.730502794331	68
1	360	37.784408961712	69
1	360	37.784408961712	70
1	360	37.784408961712	71
1	376	38.827546165936	72
1	376	38.827546165936	73
1	376	38.827546165936	74
1	392	40.406938417606	75
1	392	40.406938417606	76
1	392	40.406938417606	77
1	408	41.895066975354	78
1	408	41.895066975354	79
1	408	41.895066975354	80
1	424	43.085299813633	81
1	424	43.085299813633	82
1	424	43.085299813633	83
1	440	44.301232793227	84
1	440	44.301232793227	85
1	440	44.301232793227	86
1	456	46.151811010722	87
1	456	46.151811010722	88
1	456	46.151811010722	89
1	472	47.342560650464	90
1	472	47.342560650464	91
1	472	47.342560650464	92
1	488	48.775177477611	93
1	488	48.775177477611	94
1	488	48.775177477611	95
1	506	51.848869043077	96
1	506	51.848869043077	97
1	506	51.848869043077	98
1	519	53.6037662117	99
1	519	53.6037662117	100
1	519	53.6037662117	101
1	535	54.811546114506	102
1	535	54.811546114506	103
1	535	54.811546114506	104
1	551	56.51981449793	105
1	551	56.51981449793	106
1	551	56.51981449793	107
1	569	60.185059720717	108
1	569	60.185059720717	109
1	569	60.185059720717	110
1	585	62.143026865446	111
1	585	62.143026865446	112
1	585	62.143026865446	113
1	601	63.573014342408	114
1	601	63.573014342408	115
1	601	63.573014342408	116
1	617	65.356727966519	117
1	617	65.356727966519	118
1	617	65.356727966519	119
1	629	67.326087829586	120
1	629	67.326087829586	121
1	629	67.326087829586	122
1	647	70.585498188793	123
1	647	70.585498188793	124
1	647	70.585498188793	125
1	663	72.056185736405	126
1	663	72.056185736405	127
1	663	72.056185736405	128
1	679	73.586885269637	129
1	679	73.586885269637	130
1	679	73.586885269637	131
1	695	74.581014922163	132
1	695	74.581014922163	133
1	695	74.581014922163	134
1	711	76.467504781554	135
1	711	76.467504781554	136
1	711	76.467504781554	137
1	727	77.624991422165	138
1	727	77.624991422165	139
1	727	77.624991422165	140
1	740	78.705138565727	141
1	740	78.705138565727	142
1	740	78.705138565727	143
1	756	80.389263902496	144
1	756	80.389263902496	145
1	756	80.389263902496	146
1	772	82.359205400525	147
1	772	82.359205400525	148
1	772	82.359205400525	149
1	788	84.251485481013	150
1	788	84.251485481013	151
1	788	84.251485481013	152
1	804	86.101234395626	153
1	804	86.101234395626	154
1	804	86.101234395626	155
1	816	88.039007706934	156
1	816	88.039007706934	157
1	816	88.039007706934	158
1	829	89.270899232419	159
1	829	89.270899232419	160
1	829	89.270899232419	161
1	845	90.298397527027	162
1	845	90.298397527027	163
1	845	90.298397527027	164
1	861	91.351852177716	165
1	861	91.351852177716	166
1	861	91.351852177716	167
1	877	92.424195500675	168
1	877	92.424195500675	169
1	877	92.424195500675	170
1	893	94.236325923129	171
1	893	94.236325923129	172
1	893	94.236325923129	173
1	909	96.192848693581	174
1	909	96.192848693581	175
1	909	96.192848693581	176
1	925	97.664067486627	177
1	925	97.664067486627	178
1	925	97.664067486627	179
1	941	99.042495388042	180
1	941	99.042495388042	181
1	941	99.042495388042	182
1	957	100.785087982756	183
1	957	100.785087982756	184
1	957	100.785087982756	185
1	973	101.936885990494	186
1	973	101.936885990494	187
1	973	101.936885990494	188
1	989	103.041858965024	189
1	989	103.041858965024	190
1	989	103.041858965024	191
1	1005	104.584846088449	192
1	1005	104.584846088449	193
1	1005	104.584846088449	194
1	1021	106.486624135392	195
1	1021	106.486624135392	196
1	1021	106.486624135392	197
1	1037	108.376622530776	198
1	1037	108.376622530776	199
1	1037	108.376622530776	200
1	1053	110.015867113878	201
1	1053	110.015867113878	202
1	1053	110.015867113878	203
1	1069	111.043969288624	204
1	1069	111.043969288624	205
1	1069	111.043969288624	206
1	1085	113.036877706198	207
1	1085	113.036877706198	208
1	1085	113.036877706198	209
1	1101	114.481151451952	210
1	1101	114.481151451952	211
1	1101	114.481151451952	212
1	1117	115.506879712216	213
1	1117	115.506879712216	214
1	1117	115.506879712216	215
1	1133	117.02545959129	216
1	1133	117.02545959129	217
1	1133	117.02545959129	218
1	1149	118.574573520132	219
1	1149	118.574573520132	220
1	1149	118.574573520132	221
1	1165	119.822657434748	222
1	1165	119.822657434748	223
1	1165	119.822657434748	224
1	1179	122.668115987858	225
1	1179	122.668115987858	226
1	1179	122.668115987858	227
1	1195	124.151218041118	228
1	1195	124.151218041118	229
1	1195	124.151218041118	230
1	1211	125.743211090294	231
1	1211	125.743211090294	232
1	1211	125.743211090294	233
1	1227	127.051677738258	234
1	1227	127.051677738258	235
1	1227	127.051677738258	236
1	1243	128.667828161691	237
1	1243	128.667828161691	238
1	1243	128.667828161691	239
1	1259	130.102716664452	240
1	1259	130.102716664452	241
1	1259	130.102716664452	242
1	1275	131.1790375794	243
1	1275	131.1790375794	244
1	1275	131.1790375794	245
1	1291	132.509880564103	246
1	1291	132.509880564103	247
1	1291	132.509880564103	248
1	1307	133.748885692675	249
1	1307	133.748885692675	250
1	1307	133.748885692675	251
1	1323	134.803900468916	252
1	1323	134.803900468916	253
1	1323	134.803900468916	254
1	1339	135.908257319731	255
1	1339	135.908257319731	256
1	1339	135.908257319731	257
1	1355	137.306922964135	258
1	1355	137.306922964135	259
1	1355	137.306922964135	260
1	1371	138.628095328112	261
1	1371	138.628095328112	262
1	1371	138.628095328112	263
1	1387	140.189838901236	264
1	1387	140.189838901236	265
1	1387	140.189838901236	266
1	1403	142.09895610459	267
1	1403	142.09895610459	268
1	1403	142.09895610459	269
1	1419	143.73331050728	270
1	1419	143.73331050728	271
1	1419	143.73331050728	272
1	1435	144.954947139232	273
1	1435	144.954947139232	274
1	1435	144.954947139232	275
1	1451	146.389313556169	276
1	1451	146.389313556169	277
1	1451	146.389313556169	278
1	1467	148.250816646014	279
1	1467	148.250816646014	280
1	1467	148.250816646014	281
1	1483	149.814218465572	282
1	1483	149.814218465572	283
1	1483	149.814218465572	284
1	1499	151.402143245033	285
1	1499	151.402143245033	286
1	1499	151.402143245033	287
1	1517	154.178657404857	288
1	1517	154.178657404857	289
1	1517	154.178657404857	290
1	1533	155.239313001945	291
1	1533	155.239313001945	292
1	1533	155.239313001945	293
1	1549	157.147015700492	294
1	1549	157.147015700492	295
1	1549	157.147015700492	296
1	1565	158.881641750587	297
1	1565	158.881641750587	298
1	1565	158.881641750587	299
1	1581	160.187299278739	300
1	1581	160.187299278739	301
1	1581	160.187299278739	302
1	1597	162.061935882643	303
1	1597	162.061935882643	304
1	1597	162.061935882643	305
1	1603	163.759459437027	306
1	1603	163.759459437027	307
1	1603	163.759459437027	308
1	1619	164.74536822052	309
1	1619	164.74536822052	310
1	1619	164.74536822052	311
1	1635	166.399364171756	312
1	1635	166.399364171756	313
1	1635	166.399364171756	314
1	1651	168.007032722932	315
1	1651	168.007032722932	316
1	1651	168.007032722932	317
1	1667	169.362553498637	318
1	1667	169.362553498637	319
1	1667	169.362553498637	320
1	1676	171.212391293835	321
1	1676	171.212391293835	322
1	1676	171.212391293835	323
1	1692	172.271490471001	324
1	1692	172.271490471001	325
1	1692	172.271490471001	326
1	1708	174.165754140494	327
1	1708	174.165754140494	328
1	1708	174.165754140494	329
1	1724	175.838040605323	330
1	1724	175.838040605323	331
1	1724	175.838040605323	332
1	1740	177.780943885922	333
1	1740	177.780943885922	334
1	1740	177.780943885922	335
1	1756	179.274561223122	336
1	1756	179.274561223122	337
1	1756	179.274561223122	338
1	1772	180.621995279775	339
1	1772	180.621995279775	340
1	1772	180.621995279775	341
1	1788	181.961497622239	342
1	1788	181.961497622239	343
1	1788	181.961497622239	344
1	1804	183.522012624576	345
1	1804	183.522012624576	346
1	1804	183.522012624576	347
1	1820	184.890841445128	348
1	1820	184.890841445128	349
1	1820	184.890841445128	350
1	1829	185.996800297342	351
1	1829	185.996800297342	352
1	1829	185.996800297342	353
1	1845	187.370700047743	354
1	1845	187.370700047743	355
1	1845	187.370700047743	356
1	1861	188.945181378909	357
1	1861	188.945181378909	358
1	1861	188.945181378909	359
1	1877	190.174650235818	360
1	1877	190.174650235818	361
1	1877	190.174650235818	362
1	1893	192.17083679629	363
1	1893	192.17083679629	364
1	1893	192.17083679629	365
1	1909	193.675413795251	366
1	1909	193.675413795251	367
1	1909	193.675413795251	368
1	1925	195.377294489506	369
1	1925	195.377294489506	370
1	1925	195.377294489506	371
1	1941	197.159325284911	372
1	1941	197.159325284911	373
1	1941	197.159325284911	374
1	1957	199.073469082924	375
1	1957	199.073469082924	376
1	1957	199.073469082924	377
1	1973	200.896607164358	378
1	1973	200.896607164358	379
1	1973	200.896607164358	380
1	1989	202.250234936374	381
1	1989	202.250234936374	382
1	1989	202.250234936374	383
1	2005	203.969854728375	384
1	2005	203.969854728375	385
1	2005	203.969854728375	386
1	2021	205.317147036067	387
1	2021	205.317147036067	388
1	2021	205.317147036067	389
1	2037	206.535309081832	390
1	2037	206.535309081832	391
1	2037	206.535309081832	392
1	2053	208.337689560911	393
1	2053	208.337689560911	394
1	2053	208.337689560911	395
1	2069	209.993535932067	396
1	2069	209.993535932067	397
1	2069	209.993535932067	398
1	2085	211.242712439403	399
1	2085	211.242712439403	400
1	2085	211.242712439403	401
1	2101	212.691635558741	402
1	2101	212.691635558741	403
1	2101	212.691635558741	404
1	2117	213.764268861023	405
1	2117	213.764268861023	406
1	2117	213.764268861023	407
1	2135	215.951676609086	408
1	2135	215.951676609086	409
1	2135	215.951676609086	410
1	2151	217.851044739004	411
1	2151	217.851044739004	412
1	2151	217.851044739004	413
1	2167	219.034439600853	414
1	2167	219.034439600853	415
1	2167	219.034439600853	416
1	2183	220.252446496268	417
1	2183	220.252446496268	418
1	2183	220.252446496268	419
1	2199	222.007586642042	420
1	2199	222.007586642042	421
1	2199	222.007586642042	422
1	2217	225.096301179522	423
1	2217	225.096301179522	424
1	2217	225.096301179522	425
1	2233	226.701849869488	426
1	2233	226.701849869488	427
1	2233	226.701849869488	428
1	2249	227.720763258926	429
1	2249	227.720763258926	430
1	2249	227.720763258926	431
1	2265	228.922875880976	432
1	2265	228.922875880976	433
1	2265	228.922875880976	434
1	2281	230.362186404039	435
1	2281	230.362186404039	436
1	2281	230.362186404039	437
1	2297	231.414763226168	438
1	2297	231.414763226168	439
1	2297	231.414763226168	440
1	2313	232.666952246435	441
1	2313	232.666952246435	442
1	2313	232.666952246435	443
1	2322	234.413279830829	444
1	2322	234.413279830829	445
1	2322	234.413279830829	446
1	2334	236.168335067016	447
1	2334	236.168335067016	448
1	2334	236.168335067016	449
1	2350	237.765152866847	450
1	2350	237.765152866847	451
1	2350	237.765152866847	452
1	2366	239.742555637305	453
1	2366	239.742555637305	454
1	2366	239.742555637305	455
2	7	0.158381092426	0
2	7	0.158381092426	1
2	24	1.742007973839	2
2	24	1.742007973839	3
2	42	3.069729394322	4
2	42	3.069729394322	5
2	55	4.384118498574	6
2	55	4.384118498574	7
2	71	6.099572412339	8
2	71	6.099572412339	9
2	93	8.930232112047	10
2	93	8.930232112047	11
2	109	10.921761154323	12
2	109	10.921761154323	13
2	125	12.527958740595	14
2	125	12.527958740595	15
2	141	14.163378221226	16
2	141	14.163378221226	17
2	157	15.808882392458	18
2	157	15.808882392458	19
2	173	17.231432634645	20
2	173	17.231432634645	21
2	189	18.788043902907	22
2	189	18.788043902907	23
2	208	20.659126933228	24
2	208	20.659126933228	25
2	225	21.805336102181	26
2	225	21.805336102181	27
2	237	23.417975448651	28
2	237	23.417975448651	29
2	254	25.091980399565	30
2	254	25.091980399565	31
2	269	26.479071635029	32
2	269	26.479071635029	33
2	282	28.358737386195	34
2	282	28.358737386195	35
2	301	31.140426084114	36
2	301	31.140426084114	37
2	316	33.040685907818	38
2	316	33.040685907818	39
2	339	34.962341042535	40
2	339	34.962341042535	41
2	348	36.756286921552	42
2	348	36.756286921552	43
2	367	37.806418670777	44
2	367	37.806418670777	45
2	380	38.839933694664	46
2	380	38.839933694664	47
2	403	40.45643967878	48
2	403	40.45643967878	49
2	412	41.916442360409	50
2	412	41.916442360409	51
2	435	43.142947790712	52
2	435	43.142947790712	53
2	445	44.316774501517	54
2	445	44.316774501517	55
2	460	46.165575304237	56
2	460	46.165575304237	57
2	476	47.3546242304	58
2	476	47.3546242304	59
2	496	48.80353011164	60
2	496	48.80353011164	61
2	530	53.679248564641	62
2	530	53.679248564641	63
2	546	54.859486352337	64
2	546	54.859486352337	65
2	555	56.539769134364	66
2	555	56.539769134364	67
2	573	60.201567694141	68
2	573	60.201567694141	69
2	589	62.15556697923	70
2	589	62.15556697923	71
2	605	63.583860137326	72
2	605	63.583860137326	73
2	621	65.368317298316	74
2	621	65.368317298316	75
2	634	67.344238012895	76
2	634	67.344238012895	77
2	652	70.60699560267	78
2	652	70.60699560267	79
2	668	72.081267888721	80
2	668	72.081267888721	81
2	684	73.603044462475	82
2	684	73.603044462475	83
2	699	74.601387373104	84
2	699	74.601387373104	85
2	716	76.482491704883	86
2	716	76.482491704883	87
2	731	77.651104742156	88
2	731	77.651104742156	89
2	744	78.715412986731	90
2	744	78.715412986731	91
2	760	80.407424088136	92
2	760	80.407424088136	93
2	777	82.379245912264	94
2	777	82.379245912264	95
2	793	84.26735316908	96
2	793	84.26735316908	97
2	808	86.112199808416	98
2	808	86.112199808416	99
2	820	88.049164998172	100
2	820	88.049164998172	101
2	833	89.28102032487	102
2	833	89.28102032487	103
2	849	90.315136961469	104
2	849	90.315136961469	105
2	866	91.372814103326	106
2	866	91.372814103326	107
2	884	92.451836374597	108
2	884	92.451836374597	109
2	897	94.26985927081	110
2	897	94.26985927081	111
2	913	96.203449977272	112
2	913	96.203449977272	113
2	929	97.67595313387	114
2	929	97.67595313387	115
2	948	99.072691233074	116
2	948	99.072691233074	117
2	962	100.798552316031	118
2	962	100.798552316031	119
2	977	101.947080883424	120
2	977	101.947080883424	121
2	993	103.056995821157	122
2	993	103.056995821157	123
2	1013	104.620637219757	124
2	1013	104.620637219757	125
2	1025	106.508034568735	126
2	1025	106.508034568735	127
2	1041	108.389945137012	128
2	1041	108.389945137012	129
2	1058	110.031074902527	130
2	1058	110.031074902527	131
2	1073	111.05739103554	132
2	1073	111.05739103554	133
2	1089	113.047047862435	134
2	1089	113.047047862435	135
2	1106	114.498490151622	136
2	1106	114.498490151622	137
2	1121	115.518312199254	138
2	1121	115.518312199254	139
2	1141	117.069969692584	140
2	1141	117.069969692584	141
2	1157	118.606315849203	142
2	1157	118.606315849203	143
2	1169	119.835499632183	144
2	1169	119.835499632183	145
2	1183	122.689281173594	146
2	1183	122.689281173594	147
2	1199	124.196357829348	148
2	1199	124.196357829348	149
2	1216	125.760437112669	150
2	1216	125.760437112669	151
2	1232	127.070618797139	152
2	1232	127.070618797139	153
2	1250	128.715219646471	154
2	1250	128.715219646471	155
2	1263	130.114192983284	156
2	1263	130.114192983284	157
2	1280	131.207886225542	158
2	1280	131.207886225542	159
2	1296	132.539690117064	160
2	1296	132.539690117064	161
2	1312	133.765246197386	162
2	1312	133.765246197386	163
2	1328	134.819072138187	164
2	1328	134.819072138187	165
2	1343	135.922953400052	166
2	1343	135.922953400052	167
2	1360	137.322121183584	168
2	1360	137.322121183584	169
2	1382	138.69145132885	170
2	1382	138.69145132885	171
2	1391	140.201953112986	172
2	1391	140.201953112986	173
2	1408	142.111458637394	174
2	1408	142.111458637394	175
2	1423	143.767523873744	176
2	1423	143.767523873744	177
2	1439	144.970426263609	178
2	1439	144.970426263609	179
2	1455	146.413554866325	180
2	1455	146.413554866325	181
2	1471	148.26406481406	182
2	1471	148.26406481406	183
2	1488	149.83370832904	184
2	1488	149.83370832904	185
2	1506	151.438853494768	186
2	1506	151.438853494768	187
2	1521	154.194791585518	188
2	1521	154.194791585518	189
2	1544	155.322171659378	190
2	1544	155.322171659378	191
2	1554	157.163827053273	192
2	1554	157.163827053273	193
2	1570	158.893342321475	194
2	1570	158.893342321475	195
2	1585	160.198549534227	196
2	1585	160.198549534227	197
2	1610	163.786033382234	198
2	1610	163.786033382234	199
2	1623	164.758773002435	200
2	1623	164.758773002435	201
2	1639	166.416052158598	202
2	1639	166.416052158598	203
2	1655	168.03327282737	204
2	1655	168.03327282737	205
2	1671	169.373143789166	206
2	1671	169.373143789166	207
2	1681	171.228492001748	208
2	1681	171.228492001748	209
2	1697	172.293629076632	210
2	1697	172.293629076632	211
2	1712	174.194388000332	212
2	1712	174.194388000332	213
2	1729	175.85452130892	214
2	1729	175.85452130892	215
2	1744	177.799796054369	216
2	1744	177.799796054369	217
2	1761	179.286665392154	218
2	1761	179.286665392154	219
2	1783	180.691657636773	220
2	1783	180.691657636773	221
2	1796	181.998478452669	222
2	1796	181.998478452669	223
2	1808	183.552889527207	224
2	1808	183.552889527207	225
2	1824	184.940207506426	226
2	1824	184.940207506426	227
2	1833	186.010991005378	228
2	1833	186.010991005378	229
2	1850	187.398236687916	230
2	1850	187.398236687916	231
2	1865	188.956232017238	232
2	1865	188.956232017238	233
2	1882	190.187229688111	234
2	1882	190.187229688111	235
2	1898	192.19772157457	236
2	1898	192.19772157457	237
2	1914	193.692798920621	238
2	1914	193.692798920621	239
2	1929	195.391099786607	240
2	1929	195.391099786607	241
2	1945	197.176383804862	242
2	1945	197.176383804862	243
2	1968	199.150751935408	244
2	1968	199.150751935408	245
2	1980	200.921357347504	246
2	1980	200.921357347504	247
2	2000	202.312888987822	248
2	2000	202.312888987822	249
2	2013	204.001017566855	250
2	2013	204.001017566855	251
2	2026	205.333248039089	252
2	2026	205.333248039089	253
2	2042	206.554998085861	254
2	2042	206.554998085861	255
2	2057	208.349074779332	256
2	2057	208.349074779332	257
2	2074	210.00661890758	258
2	2074	210.00661890758	259
2	2090	211.258335663653	260
2	2090	211.258335663653	261
2	2105	212.704594230813	262
2	2105	212.704594230813	263
2	2121	213.776873111718	264
2	2121	213.776873111718	265
2	2146	216.013792855958	266
2	2146	216.013792855958	267
2	2155	217.871246339618	268
2	2155	217.871246339618	269
2	2171	219.04487813957	270
2	2171	219.04487813957	271
2	2187	220.263500131192	272
2	2187	220.263500131192	273
2	2203	222.020677818944	274
2	2203	222.020677818944	275
2	2222	225.111810499268	276
2	2222	225.111810499268	277
2	2237	226.728797883733	278
2	2237	226.728797883733	279
2	2253	227.740009588124	280
2	2253	227.740009588124	281
2	2269	228.936172866175	282
2	2269	228.936172866175	283
2	2286	230.38369788168	284
2	2286	230.38369788168	285
2	2302	231.434814088396	286
2	2302	231.434814088396	287
2	2326	234.427662107732	288
2	2326	234.427662107732	289
2	2338	236.181168945518	290
2	2338	236.181168945518	291
2	2354	237.784196424782	292
2	2354	237.784196424782	293
2	2370	239.771441966869	294
2	2370	239.771441966869	295
3	8	0.160742618959	0
3	8	0.160742618959	1
3	23	1.741140386443	2
3	23	1.741140386443	3
3	39	3.05168031821	4
3	39	3.05168031821	5
3	59	4.405684430436	6
3	59	4.405684430436	7
3	72	6.099716254958	8
3	72	6.099716254958	9
3	94	8.931213892224	10
3	94	8.931213892224	11
3	110	10.922345034057	12
3	110	10.922345034057	13
3	126	12.537152339873	14
3	126	12.537152339873	15
3	148	14.194545169858	16
3	148	14.194545169858	17
3	158	15.811130266988	18
3	158	15.811130266988	19
3	174	17.237853721065	20
3	174	17.237853721065	21
3	190	18.789436940191	22
3	190	18.789436940191	23
3	205	20.639663080189	24
3	205	20.639663080189	25
3	221	21.792527743657	26
3	221	21.792527743657	27
3	238	23.427529923815	28
3	238	23.427529923815	29
3	253	25.088584925219	30
3	253	25.088584925219	31
3	283	28.359237116299	32
3	283	28.359237116299	33
3	300	31.135321639067	34
3	300	31.135321639067	35
3	317	33.041855950064	36
3	317	33.041855950064	37
3	332	34.911611975262	38
3	332	34.911611975262	39
3	355	36.82589267504	40
3	355	36.82589267504	41
3	364	37.79492579077	42
3	364	37.79492579077	43
3	381	38.84562596647	44
3	381	38.84562596647	45
3	396	40.417829960506	46
3	396	40.417829960506	47
3	419	41.957086519194	48
3	419	41.957086519194	49
3	428	43.096775773962	50
3	428	43.096775773962	51
3	444	44.314970426165	52
3	444	44.314970426165	53
3	464	46.183038477261	54
3	464	46.183038477261	55
3	477	47.354979846912	56
3	477	47.354979846912	57
3	492	48.791397846802	58
3	492	48.791397846802	59
3	510	51.861321024003	60
3	510	51.861321024003	61
3	523	53.614823083441	62
3	523	53.614823083441	63
3	539	54.828194192002	64
3	539	54.828194192002	65
3	556	56.545869085561	66
3	556	56.545869085561	67
3	580	60.235139217266	68
3	580	60.235139217266	69
3	590	62.160187318626	70
3	590	62.160187318626	71
3	606	63.587066171231	72
3	606	63.587066171231	73
3	624	65.381450008099	74
3	624	65.381450008099	75
3	633	67.341544406734	76
3	633	67.341544406734	77
3	651	70.601588833346	78
3	651	70.601588833346	79
3	667	72.078125870111	80
3	667	72.078125870111	81
3	683	73.599079951246	82
3	683	73.599079951246	83
3	702	74.623063010459	84
3	702	74.623063010459	85
3	715	76.478884313873	86
3	715	76.478884313873	87
3	747	78.727734977433	88
3	747	78.727734977433	89
3	763	80.429994654724	90
3	763	80.429994654724	91
3	776	82.37019761579	92
3	776	82.37019761579	93
3	792	84.262761216751	94
3	792	84.262761216751	95
3	809	86.112271103992	96
3	809	86.112271103992	97
3	834	89.282303989589	98
3	834	89.282303989589	99
3	850	90.318579702815	100
3	850	90.318579702815	101
3	865	91.364676644836	102
3	865	91.364676644836	103
3	881	92.438666899701	104
3	881	92.438666899701	105
3	900	94.281054480188	106
3	900	94.281054480188	107
3	916	96.214553050881	108
3	916	96.214553050881	109
3	930	97.676783044544	110
3	930	97.676783044544	111
3	945	99.062546544528	112
3	945	99.062546544528	113
3	961	100.79582304653	114
3	961	100.79582304653	115
3	984	101.979264816594	116
3	984	101.979264816594	117
3	994	103.057936812665	118
3	994	103.057936812665	119
3	1009	104.598903351888	120
3	1009	104.598903351888	121
3	1026	106.510098623629	122
3	1026	106.510098623629	123
3	1042	108.394468097745	124
3	1042	108.394468097745	125
3	1057	110.026804667754	126
3	1057	110.026804667754	127
3	1080	111.118269228965	128
3	1080	111.118269228965	129
3	1096	113.079784194501	130
3	1096	113.079784194501	131
3	1105	114.496986053675	132
3	1105	114.496986053675	133
3	1122	115.526524709834	134
3	1122	115.526524709834	135
3	1137	117.053173124483	136
3	1137	117.053173124483	137
3	1153	118.586322622733	138
3	1153	118.586322622733	139
3	1170	119.844579957169	140
3	1170	119.844579957169	141
3	1186	122.700949928202	142
3	1186	122.700949928202	143
3	1206	124.231737864897	144
3	1206	124.231737864897	145
3	1215	125.755934602558	146
3	1215	125.755934602558	147
3	1231	127.065884414982	148
3	1231	127.065884414982	149
3	1247	128.694597509021	150
3	1247	128.694597509021	151
3	1270	130.156406084789	152
3	1270	130.156406084789	153
3	1279	131.202718119614	154
3	1279	131.202718119614	155
3	1295	132.530573874687	156
3	1295	132.530573874687	157
3	1311	133.759488872913	158
3	1311	133.759488872913	159
3	1327	134.817064742828	160
3	1327	134.817064742828	161
3	1350	135.960962154363	162
3	1350	135.960962154363	163
3	1359	137.322115501384	164
3	1359	137.322115501384	165
3	1375	138.648168054996	166
3	1375	138.648168054996	167
3	1392	140.204381777007	168
3	1392	140.204381777007	169
3	1407	142.109847815413	170
3	1407	142.109847815413	171
3	1430	143.795284367491	172
3	1430	143.795284367491	173
3	1446	145.016922078851	174
3	1446	145.016922078851	175
3	1462	146.443013553683	176
3	1462	146.443013553683	177
3	1472	148.272265510509	178
3	1472	148.272265510509	179
3	1487	149.826185672458	180
3	1487	149.826185672458	181
3	1503	151.420117229791	182
3	1503	151.420117229791	183
3	1524	154.208231588779	184
3	1524	154.208231588779	185
3	1537	155.283170410974	186
3	1537	155.283170410974	187
3	1553	157.163050488416	188
3	1553	157.163050488416	189
3	1569	158.892722211256	190
3	1569	158.892722211256	191
3	1586	160.206373407938	192
3	1586	160.206373407938	193
3	1607	163.774198052817	194
3	1607	163.774198052817	195
3	1624	164.765087984451	196
3	1624	164.765087984451	197
3	1640	166.416848814105	198
3	1640	166.416848814105	199
3	1656	168.036575810649	200
3	1656	168.036575810649	201
3	1680	171.222719349382	202
3	1680	171.222719349382	203
3	1696	172.286969157941	204
3	1696	172.286969157941	205
3	1713	174.197400412251	206
3	1713	174.197400412251	207
3	1728	175.84916395213	208
3	1728	175.84916395213	209
3	1745	177.803284686189	210
3	1745	177.803284686189	211
3	1760	179.285032281497	212
3	1760	179.285032281497	213
3	1776	180.653081954594	214
3	1776	180.653081954594	215
3	1792	181.977525731319	216
3	1792	181.977525731319	217
3	1815	183.614042512474	218
3	1815	183.614042512474	219
3	1834	186.011387650755	220
3	1834	186.011387650755	221
3	1849	187.388788884629	222
3	1849	187.388788884629	223
3	1866	188.959232111201	224
3	1866	188.959232111201	225
3	1881	190.186162930268	226
3	1881	190.186162930268	227
3	1897	192.193847922669	228
3	1897	192.193847922669	229
3	1913	193.691954230876	230
3	1913	193.691954230876	231
3	1930	195.39118549009	232
3	1930	195.39118549009	233
3	1948	197.197320512596	234
3	1948	197.197320512596	235
3	1961	199.108943595433	236
3	1961	199.108943595433	237
3	1977	200.909013054636	238
3	1977	200.909013054636	239
3	1993	202.267469396375	240
3	1993	202.267469396375	241
3	2009	203.980304445054	242
3	2009	203.980304445054	243
3	2025	205.330537414344	244
3	2025	205.330537414344	245
3	2041	206.547998787115	246
3	2041	206.547998787115	247
3	2064	208.402452749425	248
3	2064	208.402452749425	249
3	2073	210.0064713561	250
3	2073	210.0064713561	251
3	2089	211.252958160861	252
3	2089	211.252958160861	253
3	2106	212.708247255582	254
3	2106	212.708247255582	255
3	2128	213.797040554567	256
3	2128	213.797040554567	257
3	2139	215.963325676645	258
3	2139	215.963325676645	259
3	2162	217.897971476216	260
3	2162	217.897971476216	261
3	2172	219.054053971912	262
3	2172	219.054053971912	263
3	2194	220.297901150738	264
3	2194	220.297901150738	265
3	2206	222.044078561281	266
3	2206	222.044078561281	267
3	2221	225.108567626706	268
3	2221	225.108567626706	269
3	2238	226.73551912422	270
3	2238	226.73551912422	271
3	2260	227.774899809968	272
3	2260	227.774899809968	273
3	2270	228.943047773903	274
3	2270	228.943047773903	275
3	2285	230.374686646895	276
3	2285	230.374686646895	277
3	2301	231.425012066984	278
3	2301	231.425012066984	279
3	2317	232.678050292905	280
3	2317	232.678050292905	281
3	2327	234.432332934247	282
3	2327	234.432332934247	283
3	2339	236.182848439682	284
3	2339	236.182848439682	285
3	2355	237.784358705078	286
3	2355	237.784358705078	287
3	2371	239.77148578564	288
3	2371	239.77148578564	289
4	13	0.173232374063	0
4	13	0.173232374063	1
4	13	0.173232374063	2
4	29	1.769224079086	3
4	29	1.769224079086	4
4	29	1.769224079086	5
4	43	3.077820338959	6
4	43	3.077820338959	7
4	43	3.077820338959	8
4	58	4.400535445594	9
4	58	4.400535445594	10
4	58	4.400535445594	11
4	77	6.114457982832	12
4	77	6.114457982832	13
4	77	6.114457982832	14
4	99	8.949592727645	15
4	99	8.949592727645	16
4	99	8.949592727645	17
4	115	10.940480312859	18
4	115	10.940480312859	19
4	115	10.940480312859	20
4	131	12.567830639514	21
4	131	12.567830639514	22
4	131	12.567830639514	23
4	144	14.17395149049	24
4	144	14.17395149049	25
4	144	14.17395149049	26
4	163	15.840124764428	27
4	163	15.840124764428	28
4	163	15.840124764428	29
4	177	17.242300339468	30
4	177	17.242300339468	31
4	177	17.242300339468	32
4	195	18.806091876905	33
4	195	18.806091876905	34
4	195	18.806091876905	35
4	209	20.663773324282	36
4	209	20.663773324282	37
4	209	20.663773324282	38
4	224	21.803763010131	39
4	224	21.803763010131	40
4	224	21.803763010131	41
4	243	23.438753797492	42
4	243	23.438753797492	43
4	243	23.438753797492	44
4	259	25.101981572545	45
4	259	25.101981572545	46
4	259	25.101981572545	47
4	272	26.497612432385	48
4	272	26.497612432385	49
4	272	26.497612432385	50
4	288	28.390986532767	51
4	288	28.390986532767	52
4	288	28.390986532767	53
4	306	31.159985748353	54
4	306	31.159985748353	55
4	306	31.159985748353	56
4	322	33.062640293481	57
4	322	33.062640293481	58
4	322	33.062640293481	59
4	335	34.950458092783	60
4	335	34.950458092783	61
4	335	34.950458092783	62
4	351	36.787047232156	63
4	351	36.787047232156	64
4	351	36.787047232156	65
4	370	37.832139273329	66
4	370	37.832139273329	67
4	370	37.832139273329	68
4	384	38.851994015149	69
4	384	38.851994015149	70
4	384	38.851994015149	71
4	399	40.434521097743	72
4	399	40.434521097743	73
4	399	40.434521097743	74
4	415	41.937745915868	75
4	415	41.937745915868	76
4	415	41.937745915868	77
4	431	43.128111406837	78
4	431	43.128111406837	79
4	431	43.128111406837	80
4	450	44.327023903852	81
4	450	44.327023903852	82
4	450	44.327023903852	83
4	463	46.182877580889	84
4	463	46.182877580889	85
4	463	46.182877580889	86
4	482	47.384564622413	87
4	482	47.384564622413	88
4	482	47.384564622413	89
4	495	48.802962604506	90
4	495	48.802962604506	91
4	495	48.802962604506	92
4	513	51.884477286586	93
4	513	51.884477286586	94
4	513	51.884477286586	95
4	526	53.651348668596	96
4	526	53.651348668596	97
4	526	53.651348668596	98
4	542	54.847520310555	99
4	542	54.847520310555	100
4	542	54.847520310555	101
4	561	56.556663479742	102
4	561	56.556663479742	103
4	561	56.556663479742	104
4	576	60.211608257354	105
4	576	60.211608257354	106
4	576	60.211608257354	107
4	595	62.178608681654	108
4	595	62.178608681654	109
4	595	62.178608681654	110
4	611	63.608786458968	111
4	611	63.608786458968	112
4	611	63.608786458968	113
4	639	67.35630919256	114
4	639	67.35630919256	115
4	639	67.35630919256	116
4	657	70.630737255922	117
4	657	70.630737255922	118
4	657	70.630737255922	119
4	673	72.099562776317	120
4	673	72.099562776317	121
4	673	72.099562776317	122
4	689	73.619793972212	123
4	689	73.619793972212	124
4	689	73.619793972212	125
4	705	74.641191994071	126
4	705	74.641191994071	127
4	705	74.641191994071	128
4	719	76.490626301039	129
4	719	76.490626301039	130
4	719	76.490626301039	131
4	734	77.666196767025	132
4	734	77.666196767025	133
4	734	77.666196767025	134
4	748	78.728157621951	135
4	748	78.728157621951	136
4	748	78.728157621951	137
4	766	80.44856900575	138
4	766	80.44856900575	139
4	766	80.44856900575	140
4	780	82.380845272718	141
4	780	82.380845272718	142
4	780	82.380845272718	143
4	796	84.272925849591	144
4	796	84.272925849591	145
4	796	84.272925849591	146
4	823	88.069658419831	147
4	823	88.069658419831	148
4	823	88.069658419831	149
4	839	89.330995959637	150
4	839	89.330995959637	151
4	839	89.330995959637	152
4	855	90.329727240744	153
4	855	90.329727240744	154
4	855	90.329727240744	155
4	871	91.393914030543	156
4	871	91.393914030543	157
4	871	91.393914030543	158
4	885	92.45373413184	159
4	885	92.45373413184	160
4	885	92.45373413184	161
4	901	94.281149655842	162
4	901	94.281149655842	163
4	901	94.281149655842	164
4	917	96.214658291235	165
4	917	96.214658291235	166
4	917	96.214658291235	167
4	935	97.689466346685	168
4	935	97.689466346685	169
4	935	97.689466346685	170
4	949	99.076835662886	171
4	949	99.076835662886	172
4	949	99.076835662886	173
4	967	100.811756352213	174
4	967	100.811756352213	175
4	967	100.811756352213	176
4	980	101.960294286453	177
4	980	101.960294286453	178
4	980	101.960294286453	179
4	999	103.088892288303	180
4	999	103.088892288303	181
4	999	103.088892288303	182
4	1012	104.610749510617	183
4	1012	104.610749510617	184
4	1012	104.610749510617	185
4	1031	106.546985744905	186
4	1031	106.546985744905	187
4	1031	106.546985744905	188
4	1047	108.408029755561	189
4	1047	108.408029755561	190
4	1047	108.408029755561	191
4	1063	110.064737805165	192
4	1063	110.064737805165	193
4	1063	110.064737805165	194
4	1076	111.07853714557	195
4	1076	111.07853714557	196
4	1076	111.07853714557	197
4	1092	113.06285794899	198
4	1092	113.06285794899	199
4	1092	113.06285794899	200
4	1111	114.523419586027	201
4	1111	114.523419586027	202
4	1111	114.523419586027	203
4	1125	115.536179030409	204
4	1125	115.536179030409	205
4	1125	115.536179030409	206
4	1140	117.064407219198	207
4	1140	117.064407219198	208
4	1140	117.064407219198	209
4	1156	118.599041281119	210
4	1156	118.599041281119	211
4	1156	118.599041281119	212
4	1187	122.706683695508	213
4	1187	122.706683695508	214
4	1187	122.706683695508	215
4	1202	124.210332620147	216
4	1202	124.210332620147	217
4	1202	124.210332620147	218
4	1221	125.792275916517	219
4	1221	125.792275916517	220
4	1221	125.792275916517	221
4	1237	127.081038890482	222
4	1237	127.081038890482	223
4	1237	127.081038890482	224
4	1253	128.736047484548	225
4	1253	128.736047484548	226
4	1253	128.736047484548	227
4	1266	130.131574350709	228
4	1266	130.131574350709	229
4	1266	130.131574350709	230
4	1285	131.221786750687	231
4	1285	131.221786750687	232
4	1285	131.221786750687	233
4	1301	132.559344475061	234
4	1301	132.559344475061	235
4	1301	132.559344475061	236
4	1317	133.77602340551	237
4	1317	133.77602340551	238
4	1317	133.77602340551	239
4	1331	134.82767148583	240
4	1331	134.82767148583	241
4	1331	134.82767148583	242
4	1346	135.933679560633	243
4	1346	135.933679560633	244
4	1346	135.933679560633	245
4	1365	137.344630590954	246
4	1365	137.344630590954	247
4	1365	137.344630590954	248
4	1378	138.659258373632	249
4	1378	138.659258373632	250
4	1378	138.659258373632	251
4	1397	140.229107905632	252
4	1397	140.229107905632	253
4	1397	140.229107905632	254
4	1411	142.120100426631	255
4	1411	142.120100426631	256
4	1411	142.120100426631	257
4	1426	143.783619465552	258
4	1426	143.783619465552	259
4	1426	143.783619465552	260
4	1442	145.006628279378	261
4	1442	145.006628279378	262
4	1442	145.006628279378	263
4	1458	146.429641059866	264
4	1458	146.429641059866	265
4	1458	146.429641059866	266
4	1477	148.293160364245	267
4	1477	148.293160364245	268
4	1477	148.293160364245	269
4	1493	149.881345136975	270
4	1493	149.881345136975	271
4	1493	149.881345136975	272
4	1509	151.45770284302	273
4	1509	151.45770284302	274
4	1509	151.45770284302	275
4	1525	154.215809204691	276
4	1525	154.215809204691	277
4	1525	154.215809204691	278
4	1540	155.304430938951	279
4	1540	155.304430938951	280
4	1540	155.304430938951	281
4	1559	157.180717742237	282
4	1559	157.180717742237	283
4	1559	157.180717742237	284
4	1575	158.905559712281	285
4	1575	158.905559712281	286
4	1575	158.905559712281	287
4	1591	160.217990946748	288
4	1591	160.217990946748	289
4	1591	160.217990946748	290
4	1611	163.791903426025	291
4	1611	163.791903426025	292
4	1611	163.791903426025	293
4	1627	164.771427952861	294
4	1627	164.771427952861	295
4	1627	164.771427952861	296
4	1645	166.427514865477	297
4	1645	166.427514865477	298
4	1645	166.427514865477	299
4	1661	168.047460420893	300
4	1661	168.047460420893	301
4	1661	168.047460420893	302
4	1684	171.233853396604	303
4	1684	171.233853396604	304
4	1684	171.233853396604	305
4	1702	172.318956810838	306
4	1702	172.318956810838	307
4	1702	172.318956810838	308
4	1716	174.205899904596	309
4	1716	174.205899904596	310
4	1716	174.205899904596	311
4	1732	175.860763308169	312
4	1732	175.860763308169	313
4	1732	175.860763308169	314
4	1750	177.813601963362	315
4	1750	177.813601963362	316
4	1750	177.813601963362	317
4	1766	179.30365289777	318
4	1766	179.30365289777	319
4	1766	179.30365289777	320
4	1779	180.668903765125	321
4	1779	180.668903765125	322
4	1779	180.668903765125	323
4	1795	181.992657815131	324
4	1795	181.992657815131	325
4	1795	181.992657815131	326
4	1811	183.576407748068	327
4	1811	183.576407748068	328
4	1811	183.576407748068	329
4	1839	186.02952491224	330
4	1839	186.02952491224	331
4	1839	186.02952491224	332
4	1853	187.401586452653	333
4	1853	187.401586452653	334
4	1853	187.401586452653	335
4	1871	188.980364715391	336
4	1871	188.980364715391	337
4	1871	188.980364715391	338
4	1887	190.210362551664	339
4	1887	190.210362551664	340
4	1887	190.210362551664	341
4	1901	192.207688638386	342
4	1901	192.207688638386	343
4	1901	192.207688638386	344
4	1919	193.711219599981	345
4	1919	193.711219599981	346
4	1919	193.711219599981	347
4	1935	195.407856809765	348
4	1935	195.407856809765	349
4	1935	195.407856809765	350
4	1949	197.201979317679	351
4	1949	197.201979317679	352
4	1949	197.201979317679	353
4	1964	199.131815016491	354
4	1964	199.131815016491	355
4	1964	199.131815016491	356
4	1983	200.931986692323	357
4	1983	200.931986692323	358
4	1983	200.931986692323	359
4	1996	202.280065482172	360
4	1996	202.280065482172	361
4	1996	202.280065482172	362
4	2012	203.991535860123	363
4	2012	203.991535860123	364
4	2012	203.991535860123	365
4	2031	205.34372725826	366
4	2031	205.34372725826	367
4	2031	205.34372725826	368
4	2045	206.560597606636	369
4	2045	206.560597606636	370
4	2045	206.560597606636	371
4	2060	208.361987664166	372
4	2060	208.361987664166	373
4	2060	208.361987664166	374
4	2079	210.037662055628	375
4	2079	210.037662055628	376
4	2079	210.037662055628	377
4	2095	211.269743356346	378
4	2095	211.269743356346	379
4	2095	211.269743356346	380
4	2111	212.720616313754	381
4	2111	212.720616313754	382
4	2111	212.720616313754	383
4	2124	213.786926353702	384
4	2124	213.786926353702	385
4	2124	213.786926353702	386
4	2142	216.001741686203	387
4	2142	216.001741686203	388
4	2142	216.001741686203	389
4	2158	217.883388748836	390
4	2158	217.883388748836	391
4	2158	217.883388748836	392
4	2177	219.080759476234	393
4	2177	219.080759476234	394
4	2177	219.080759476234	395
4	2190	220.287729073807	396
4	2190	220.287729073807	397
4	2190	220.287729073807	398
4	2207	222.051620493419	399
4	2207	222.051620493419	400
4	2207	222.051620493419	401
4	2227	225.123273271468	402
4	2227	225.123273271468	403
4	2227	225.123273271468	404
4	2243	226.780644386838	405
4	2243	226.780644386838	406
4	2243	226.780644386838	407
4	2256	227.754606018404	408
4	2256	227.754606018404	409
4	2256	227.754606018404	410
4	2273	228.94887508717	411
4	2273	228.94887508717	412
4	2273	228.94887508717	413
4	2289	230.386689176444	414
4	2289	230.386689176444	415
4	2289	230.386689176444	416
4	2307	231.445360961285	417
4	2307	231.445360961285	418
4	2307	231.445360961285	419
4	2344	236.19608578097	420
4	2344	236.19608578097	421
4	2344	236.19608578097	422
4	2360	237.795653024764	423
4	2360	237.795653024764	424
4	2360	237.795653024764	425
4	2376	239.791926889044	426
4	2376	239.791926889044	427
4	2376	239.791926889044	428
5	16	0.183232374063	0
5	48	3.087820338959	1
5	62	4.410535445594	2
5	80	6.124457982832	3
5	102	8.959592727645	4
5	118	10.950480312859	5
5	147	14.18395149049	6
5	166	15.850124764428	7
5	182	17.252300339468	8
5	214	20.673773324282	9
5	228	21.813763010131	10
5	246	23.448753797492	11
5	262	25.111981572545	12
5	275	26.507612432385	13
5	291	28.400986532767	14
5	309	31.169985748353	15
5	338	34.960458092783	16
5	354	36.797047232156	17
5	373	37.842139273329	18
5	389	38.861994015149	19
5	402	40.444521097743	20
5	418	41.947745915868	21
5	434	43.138111406837	22
5	453	44.337023903852	23
5	467	46.192877580889	24
5	485	47.394564622413	25
5	499	48.812962604506	26
5	516	51.894477286586	27
5	529	53.661348668596	28
5	545	54.857520310555	29
5	564	56.566663479742	30
5	579	60.221608257354	31
5	598	62.188608681654	32
5	642	67.36630919256	33
5	660	70.640737255922	34
5	676	72.109562776317	35
5	692	73.629793972212	36
5	708	74.651191994071	37
5	724	76.500626301039	38
5	737	77.676196767025	39
5	753	78.738157621951	40
5	769	80.45856900575	41
5	785	82.390845272718	42
5	801	84.282925849591	43
5	826	88.079658419831	44
5	842	89.340995959637	45
5	858	90.339727240744	46
5	874	91.403914030543	47
5	890	92.46373413184	48
5	906	94.291149655842	49
5	922	96.224658291235	50
5	938	97.699466346685	51
5	954	99.086835662886	52
5	970	100.821756352213	53
5	983	101.970294286453	54
5	1002	103.098892288303	55
5	1016	104.620749510617	56
5	1034	106.556985744905	57
5	1050	108.418029755561	58
5	1066	110.074737805165	59
5	1095	113.07285794899	60
5	1114	114.533419586027	61
5	1130	115.546179030409	62
5	1144	117.074407219198	63
5	1160	118.609041281119	64
5	1192	122.716683695508	65
5	1224	125.802275916517	66
5	1240	127.091038890482	67
5	1256	128.746047484548	68
5	1269	130.141574350709	69
5	1288	131.231786750687	70
5	1304	132.569344475061	71
5	1320	133.78602340551	72
5	1336	134.83767148583	73
5	1349	135.943679560633	74
5	1368	137.354630590954	75
5	1400	140.239107905632	76
5	1429	143.793619465552	77
5	1445	145.016628279378	78
5	1461	146.439641059866	79
5	1496	149.891345136975	80
5	1512	151.46770284302	81
5	1530	154.225809204691	82
5	1543	155.314430938951	83
5	1562	157.190717742237	84
5	1578	158.915559712281	85
5	1594	160.227990946748	86
5	1616	163.801903426025	87
5	1632	164.781427952861	88
5	1648	166.437514865477	89
5	1664	168.057460420893	90
5	1689	171.243853396604	91
5	1705	172.328956810838	92
5	1721	174.215899904596	93
5	1737	175.870763308169	94
5	1753	177.823601963362	95
5	1769	179.31365289777	96
5	1782	180.678903765125	97
5	1799	182.002657815131	98
5	1814	183.586407748068	99
5	1842	186.03952491224	100
5	1858	187.411586452653	101
5	1874	188.990364715391	102
5	1890	190.220362551664	103
5	1906	192.217688638386	104
5	1922	193.721219599981	105
5	1938	195.417856809765	106
5	1954	197.211979317679	107
5	1967	199.141815016491	108
5	1986	200.941986692323	109
5	1999	202.290065482172	110
5	2016	204.001535860123	111
5	2034	205.35372725826	112
5	2050	206.570597606636	113
5	2063	208.371987664166	114
5	2082	210.047662055628	115
5	2098	211.279743356346	116
5	2114	212.730616313754	117
5	2127	213.796926353702	118
5	2145	216.011741686203	119
5	2161	217.893388748836	120
5	2180	219.090759476234	121
5	2193	220.297729073807	122
5	2212	222.061620493419	123
5	2230	225.133273271468	124
5	2246	226.790644386838	125
5	2278	228.95887508717	126
5	2294	230.396689176444	127
5	2310	231.455360961285	128
5	2347	236.20608578097	129
5	2363	237.805653024764	130
5	2379	239.801926889044	131

