version 2
run General-3-20231008-05:33:00-14160
attr configname General
attr datetime 20231008-05:33:00
attr experiment General
attr inifile omnetpp.ini
attr iterationvars ""
attr iterationvarsf ""
attr measurement ""
attr network Reliability
attr processid 14160
attr repetition 3
attr replication #3
attr resultdir results
attr runnumber 3
attr seedset 3
param Reliability.node[*].transmissionTime "uniform(1s, 2s)"
param Reliability.node[*].delayTime "uniform(0.01s, 0.2s)"
param Reliability.node[*].processingTime exponential(0.01s)
param Reliability.node[*].lossProbability 0.1

vector 0 Reliability.node[0] txVector ETV
vector 1 Reliability.node[1] txVector ETV
vector 2 Reliability.node[2] txVector ETV
vector 3 Reliability.node[4] txVector ETV
vector 4 Reliability.node[3] txVector ETV
vector 5 Reliability.node[5] rxVector ETV
0	1	0.114651601831	0
0	17	1.185376482154	1
0	33	2.278927977732	2
0	49	4.044754352257	3
0	65	5.802419597818	4
0	81	7.611348797404	5
0	97	9.174118893756	6
0	113	10.548243621899	7
0	129	12.064338241307	8
0	145	13.585942578105	9
0	161	15.091516635915	10
0	177	16.843656665947	11
0	193	18.663437394727	12
0	209	19.946844766684	13
0	225	21.135095614776	14
0	241	22.707333234673	15
0	257	23.983974781422	16
0	259	25.475790329579	17
0	261	26.605448713595	18
0	277	28.465502176503	19
0	279	29.805508101661	20
0	295	31.50225808944	21
0	311	32.597139423316	22
0	327	34.276022464571	23
0	343	35.989627008628	24
0	359	37.592117539676	25
0	375	38.697776744211	26
0	391	39.920153063791	27
0	403	41.722981033916	28
0	419	42.935875369538	29
0	435	44.390187150402	30
0	437	45.402942641707	31
0	439	46.677580111263	32
0	455	48.619494474794	33
0	471	49.800234803765	34
0	487	51.455368714708	35
0	489	53.039298807339	36
0	505	54.139876520097	37
0	521	55.984323499793	38
0	537	57.090064998785	39
0	553	58.143040019156	40
0	569	59.932084275478	41
0	585	61.675187845084	42
0	601	63.5722514529	43
0	603	65.169156065046	44
0	619	67.151960835627	45
0	635	68.851213301367	46
0	651	70.015812849461	47
0	667	71.91297369527	48
0	683	73.405825017088	49
0	699	74.938703852308	50
0	701	76.830127526143	51
0	710	78.685675727738	52
0	712	80.220601064455	53
0	728	81.685138041921	54
0	744	83.109285289723	55
0	760	84.279275307267	56
0	766	85.431738568072	57
0	782	87.318222979151	58
0	798	89.03771348444	59
0	814	90.532043056164	60
0	830	91.894830978077	61
0	846	93.4217932353	62
0	862	94.57902791707	63
0	878	96.184238541472	64
0	894	98.161632767712	65
0	910	99.967179103355	66
0	926	101.465984324758	67
0	942	103.250234790678	68
0	958	104.878549209396	69
0	974	106.006958286111	70
0	990	107.171433212767	71
0	1006	108.699927988528	72
0	1022	110.248634796423	73
0	1038	111.926874033707	74
0	1054	113.085876543141	75
0	1070	114.234832854309	76
0	1086	115.628374301894	77
0	1102	117.351523460886	78
0	1104	118.478947209958	79
0	1120	120.459282841831	80
0	1122	121.921201094584	81
0	1124	123.627836962761	82
0	1140	125.606098581636	83
0	1156	127.451060120547	84
0	1172	129.254264637194	85
0	1188	130.499241157732	86
0	1204	132.238378708082	87
0	1220	133.506145890633	88
0	1236	134.99060103909	89
0	1252	136.705698356329	90
0	1268	138.389814371307	91
0	1284	139.813653406751	92
0	1300	140.913920418656	93
0	1316	142.075825635175	94
0	1332	144.003265446814	95
0	1348	145.159199873049	96
0	1364	146.721295171481	97
0	1380	148.633999651827	98
0	1396	149.96281486267	99
0	1412	151.271452551305	100
0	1428	153.096348482946	101
0	1444	154.674396053253	102
0	1460	156.243217128858	103
0	1462	157.820158097724	104
0	1478	158.96727104375	105
0	1494	160.608640039171	106
0	1510	162.253792486451	107
0	1526	163.996097413888	108
0	1542	165.273513672706	109
0	1558	166.780945722312	110
0	1574	168.635626180396	111
0	1590	169.973640296441	112
0	1606	171.393419622742	113
0	1622	172.472869924335	114
0	1638	173.851744114952	115
0	1654	175.435453788442	116
0	1670	176.701984884515	117
0	1686	178.556959087327	118
0	1702	180.059941446474	119
0	1718	181.492863144325	120
0	1734	183.452276794538	121
0	1750	184.947609523377	122
0	1766	186.172363607744	123
0	1782	187.390374997929	124
0	1798	188.903260612926	125
0	1814	190.827349169478	126
0	1830	192.414326819657	127
0	1832	193.586780644786	128
0	1848	194.77182802355	129
0	1864	196.599277163456	130
0	1880	198.263847359988	131
0	1882	199.920789245815	132
0	1898	201.520483484791	133
0	1914	202.799089058369	134
0	1916	203.97359871382	135
0	1932	205.23612407392	136
0	1948	207.194899804956	137
0	1964	208.386935269526	138
0	1980	210.310738914014	139
0	1996	212.21526457376	140
0	2012	213.250429958405	141
0	2028	214.630328304434	142
0	2044	215.972968226831	143
0	2060	217.461480764273	144
0	2076	219.049315763238	145
0	2092	220.642428300875	146
0	2108	221.650502224752	147
0	2124	223.051200266063	148
0	2140	224.319126190452	149
0	2156	225.695592431884	150
0	2172	226.957087528726	151
0	2188	228.850452299995	152
0	2204	229.982859228106	153
0	2220	231.331002688102	154
0	2222	232.985252278225	155
0	2238	234.628033137481	156
0	2254	236.549322394953	157
0	2270	238.235659288541	158
1	3	0.14297423212	0
1	3	0.14297423212	1
1	3	0.14297423212	2
1	19	1.207245137116	3
1	19	1.207245137116	4
1	19	1.207245137116	5
1	35	2.325290191648	6
1	35	2.325290191648	7
1	35	2.325290191648	8
1	51	4.071768279537	9
1	51	4.071768279537	10
1	51	4.071768279537	11
1	67	5.817511050783	12
1	67	5.817511050783	13
1	67	5.817511050783	14
1	83	7.63513830876	15
1	83	7.63513830876	16
1	83	7.63513830876	17
1	99	9.184900672796	18
1	99	9.184900672796	19
1	99	9.184900672796	20
1	115	10.564356200769	21
1	115	10.564356200769	22
1	115	10.564356200769	23
1	131	12.075876740932	24
1	131	12.075876740932	25
1	131	12.075876740932	26
1	147	13.620956600362	27
1	147	13.620956600362	28
1	147	13.620956600362	29
1	163	15.102752068496	30
1	163	15.102752068496	31
1	163	15.102752068496	32
1	179	16.862126289161	33
1	179	16.862126289161	34
1	179	16.862126289161	35
1	195	18.694800345612	36
1	195	18.694800345612	37
1	195	18.694800345612	38
1	211	19.963181882865	39
1	211	19.963181882865	40
1	211	19.963181882865	41
1	227	21.149287496986	42
1	227	21.149287496986	43
1	227	21.149287496986	44
1	243	22.720233302539	45
1	243	22.720233302539	46
1	243	22.720233302539	47
1	263	26.617912808533	48
1	263	26.617912808533	49
1	263	26.617912808533	50
1	281	29.82930755603	51
1	281	29.82930755603	52
1	281	29.82930755603	53
1	297	31.517465148576	54
1	297	31.517465148576	55
1	297	31.517465148576	56
1	313	32.6169052359	57
1	313	32.6169052359	58
1	313	32.6169052359	59
1	329	34.288746279136	60
1	329	34.288746279136	61
1	329	34.288746279136	62
1	345	36.002259648718	63
1	345	36.002259648718	64
1	345	36.002259648718	65
1	361	37.60789793155	66
1	361	37.60789793155	67
1	361	37.60789793155	68
1	377	38.712188895462	69
1	377	38.712188895462	70
1	377	38.712188895462	71
1	393	39.953256293834	72
1	393	39.953256293834	73
1	393	39.953256293834	74
1	405	41.738432901481	75
1	405	41.738432901481	76
1	405	41.738432901481	77
1	421	42.950952622406	78
1	421	42.950952622406	79
1	421	42.950952622406	80
1	441	46.690820362336	81
1	441	46.690820362336	82
1	441	46.690820362336	83
1	457	48.643113591734	84
1	457	48.643113591734	85
1	457	48.643113591734	86
1	473	49.810239593067	87
1	473	49.810239593067	88
1	473	49.810239593067	89
1	491	53.056268820188	90
1	491	53.056268820188	91
1	491	53.056268820188	92
1	507	54.159482725119	93
1	507	54.159482725119	94
1	507	54.159482725119	95
1	523	56.00688947032	96
1	523	56.00688947032	97
1	523	56.00688947032	98
1	539	57.117007837798	99
1	539	57.117007837798	100
1	539	57.117007837798	101
1	555	58.153967510194	102
1	555	58.153967510194	103
1	555	58.153967510194	104
1	571	59.947500952828	105
1	571	59.947500952828	106
1	571	59.947500952828	107
1	587	61.693135835721	108
1	587	61.693135835721	109
1	587	61.693135835721	110
1	605	65.188751067647	111
1	605	65.188751067647	112
1	605	65.188751067647	113
1	621	67.16793627743	114
1	621	67.16793627743	115
1	621	67.16793627743	116
1	637	68.865736126214	117
1	637	68.865736126214	118
1	637	68.865736126214	119
1	653	70.037262555952	120
1	653	70.037262555952	121
1	653	70.037262555952	122
1	669	71.933152233913	123
1	669	71.933152233913	124
1	669	71.933152233913	125
1	685	73.423560031834	126
1	685	73.423560031834	127
1	685	73.423560031834	128
1	703	76.844106013302	129
1	703	76.844106013302	130
1	703	76.844106013302	131
1	714	80.230668231716	132
1	714	80.230668231716	133
1	714	80.230668231716	134
1	730	81.70479619442	135
1	730	81.70479619442	136
1	730	81.70479619442	137
1	746	83.12853104586	138
1	746	83.12853104586	139
1	746	83.12853104586	140
1	762	84.312842014405	141
1	762	84.312842014405	142
1	762	84.312842014405	143
1	768	85.445195307412	144
1	768	85.445195307412	145
1	768	85.445195307412	146
1	784	87.334775556231	147
1	784	87.334775556231	148
1	784	87.334775556231	149
1	800	89.055221357469	150
1	800	89.055221357469	151
1	800	89.055221357469	152
1	816	90.555438416966	153
1	816	90.555438416966	154
1	816	90.555438416966	155
1	832	91.909008530809	156
1	832	91.909008530809	157
1	832	91.909008530809	158
1	848	93.43208025593	159
1	848	93.43208025593	160
1	848	93.43208025593	161
1	864	94.608229157502	162
1	864	94.608229157502	163
1	864	94.608229157502	164
1	880	96.204010574786	165
1	880	96.204010574786	166
1	880	96.204010574786	167
1	896	98.198494872294	168
1	896	98.198494872294	169
1	896	98.198494872294	170
1	912	99.977906090071	171
1	912	99.977906090071	172
1	912	99.977906090071	173
1	928	101.49228665641	174
1	928	101.49228665641	175
1	928	101.49228665641	176
1	944	103.262636673865	177
1	944	103.262636673865	178
1	944	103.262636673865	179
1	960	104.895692362633	180
1	960	104.895692362633	181
1	960	104.895692362633	182
1	976	106.017110445589	183
1	976	106.017110445589	184
1	976	106.017110445589	185
1	992	107.189388715068	186
1	992	107.189388715068	187
1	992	107.189388715068	188
1	1008	108.714116651293	189
1	1008	108.714116651293	190
1	1008	108.714116651293	191
1	1024	110.281665250906	192
1	1024	110.281665250906	193
1	1024	110.281665250906	194
1	1040	111.938131503609	195
1	1040	111.938131503609	196
1	1040	111.938131503609	197
1	1056	113.103957940213	198
1	1056	113.103957940213	199
1	1056	113.103957940213	200
1	1072	114.269346373531	201
1	1072	114.269346373531	202
1	1072	114.269346373531	203
1	1088	115.650730313327	204
1	1088	115.650730313327	205
1	1088	115.650730313327	206
1	1106	118.493665120284	207
1	1106	118.493665120284	208
1	1106	118.493665120284	209
1	1126	123.638815821102	210
1	1126	123.638815821102	211
1	1126	123.638815821102	212
1	1142	125.622461121246	213
1	1142	125.622461121246	214
1	1142	125.622461121246	215
1	1158	127.466201276643	216
1	1158	127.466201276643	217
1	1158	127.466201276643	218
1	1174	129.269475122264	219
1	1174	129.269475122264	220
1	1174	129.269475122264	221
1	1190	130.509419260538	222
1	1190	130.509419260538	223
1	1190	130.509419260538	224
1	1206	132.251432959212	225
1	1206	132.251432959212	226
1	1206	132.251432959212	227
1	1222	133.518196900403	228
1	1222	133.518196900403	229
1	1222	133.518196900403	230
1	1238	135.011627707949	231
1	1238	135.011627707949	232
1	1238	135.011627707949	233
1	1254	136.7200935145	234
1	1254	136.7200935145	235
1	1254	136.7200935145	236
1	1270	138.410882192127	237
1	1270	138.410882192127	238
1	1270	138.410882192127	239
1	1286	139.827645200643	240
1	1286	139.827645200643	241
1	1286	139.827645200643	242
1	1302	140.934200466217	243
1	1302	140.934200466217	244
1	1302	140.934200466217	245
1	1318	142.087861075719	246
1	1318	142.087861075719	247
1	1318	142.087861075719	248
1	1334	144.023528683102	249
1	1334	144.023528683102	250
1	1334	144.023528683102	251
1	1350	145.170032954396	252
1	1350	145.170032954396	253
1	1350	145.170032954396	254
1	1366	146.734689211908	255
1	1366	146.734689211908	256
1	1366	146.734689211908	257
1	1382	148.64885667766	258
1	1382	148.64885667766	259
1	1382	148.64885667766	260
1	1398	149.977795358604	261
1	1398	149.977795358604	262
1	1398	149.977795358604	263
1	1414	151.281639683213	264
1	1414	151.281639683213	265
1	1414	151.281639683213	266
1	1430	153.132431877484	267
1	1430	153.132431877484	268
1	1430	153.132431877484	269
1	1446	154.685283838008	270
1	1446	154.685283838008	271
1	1446	154.685283838008	272
1	1464	157.83197539143	273
1	1464	157.83197539143	274
1	1464	157.83197539143	275
1	1480	158.982613763561	276
1	1480	158.982613763561	277
1	1480	158.982613763561	278
1	1496	160.621516884467	279
1	1496	160.621516884467	280
1	1496	160.621516884467	281
1	1512	162.264249476592	282
1	1512	162.264249476592	283
1	1512	162.264249476592	284
1	1528	164.015829740859	285
1	1528	164.015829740859	286
1	1528	164.015829740859	287
1	1544	165.296704674369	288
1	1544	165.296704674369	289
1	1544	165.296704674369	290
1	1560	166.798199481571	291
1	1560	166.798199481571	292
1	1560	166.798199481571	293
1	1576	168.662471883302	294
1	1576	168.662471883302	295
1	1576	168.662471883302	296
1	1592	169.987177705072	297
1	1592	169.987177705072	298
1	1592	169.987177705072	299
1	1608	171.418813726661	300
1	1608	171.418813726661	301
1	1608	171.418813726661	302
1	1624	172.489860036291	303
1	1624	172.489860036291	304
1	1624	172.489860036291	305
1	1640	173.866080679395	306
1	1640	173.866080679395	307
1	1640	173.866080679395	308
1	1656	175.45602250545	309
1	1656	175.45602250545	310
1	1656	175.45602250545	311
1	1672	176.732484267976	312
1	1672	176.732484267976	313
1	1672	176.732484267976	314
1	1688	178.592149048499	315
1	1688	178.592149048499	316
1	1688	178.592149048499	317
1	1704	180.070171046086	318
1	1704	180.070171046086	319
1	1704	180.070171046086	320
1	1720	181.502961373772	321
1	1720	181.502961373772	322
1	1720	181.502961373772	323
1	1736	183.479926532362	324
1	1736	183.479926532362	325
1	1736	183.479926532362	326
1	1752	184.97110309922	327
1	1752	184.97110309922	328
1	1752	184.97110309922	329
1	1768	186.188222787263	330
1	1768	186.188222787263	331
1	1768	186.188222787263	332
1	1784	187.402223985246	333
1	1784	187.402223985246	334
1	1784	187.402223985246	335
1	1800	188.924136819961	336
1	1800	188.924136819961	337
1	1800	188.924136819961	338
1	1816	190.847229031923	339
1	1816	190.847229031923	340
1	1816	190.847229031923	341
1	1834	193.607796179832	342
1	1834	193.607796179832	343
1	1834	193.607796179832	344
1	1850	194.799195923035	345
1	1850	194.799195923035	346
1	1850	194.799195923035	347
1	1866	196.614221837761	348
1	1866	196.614221837761	349
1	1866	196.614221837761	350
1	1884	199.944558492195	351
1	1884	199.944558492195	352
1	1884	199.944558492195	353
1	1900	201.535229075968	354
1	1900	201.535229075968	355
1	1900	201.535229075968	356
1	1918	203.991973795867	357
1	1918	203.991973795867	358
1	1918	203.991973795867	359
1	1934	205.249332773904	360
1	1934	205.249332773904	361
1	1934	205.249332773904	362
1	1950	207.229690609148	363
1	1950	207.229690609148	364
1	1950	207.229690609148	365
1	1966	208.403563671677	366
1	1966	208.403563671677	367
1	1966	208.403563671677	368
1	1982	210.335641750211	369
1	1982	210.335641750211	370
1	1982	210.335641750211	371
1	1998	212.226596388471	372
1	1998	212.226596388471	373
1	1998	212.226596388471	374
1	2014	213.288235366264	375
1	2014	213.288235366264	376
1	2014	213.288235366264	377
1	2030	214.641188902049	378
1	2030	214.641188902049	379
1	2030	214.641188902049	380
1	2046	215.989556421233	381
1	2046	215.989556421233	382
1	2046	215.989556421233	383
1	2062	217.476090889605	384
1	2062	217.476090889605	385
1	2062	217.476090889605	386
1	2078	219.084038570751	387
1	2078	219.084038570751	388
1	2078	219.084038570751	389
1	2094	220.695932155353	390
1	2094	220.695932155353	391
1	2094	220.695932155353	392
1	2110	221.66411472887	393
1	2110	221.66411472887	394
1	2110	221.66411472887	395
1	2126	223.063829455264	396
1	2126	223.063829455264	397
1	2126	223.063829455264	398
1	2142	224.334941811525	399
1	2142	224.334941811525	400
1	2142	224.334941811525	401
1	2158	225.708147588973	402
1	2158	225.708147588973	403
1	2158	225.708147588973	404
1	2174	226.97513091637	405
1	2174	226.97513091637	406
1	2174	226.97513091637	407
1	2190	228.872530561108	408
1	2190	228.872530561108	409
1	2190	228.872530561108	410
1	2206	230.009414414635	411
1	2206	230.009414414635	412
1	2206	230.009414414635	413
1	2224	232.995784185836	414
1	2224	232.995784185836	415
1	2224	232.995784185836	416
1	2240	234.640038781231	417
1	2240	234.640038781231	418
1	2240	234.640038781231	419
1	2256	236.578388257643	420
1	2256	236.578388257643	421
1	2256	236.578388257643	422
1	2272	238.25281326591	423
1	2272	238.25281326591	424
1	2272	238.25281326591	425
2	7	0.160124635094	0
2	7	0.160124635094	1
2	23	1.223348525772	2
2	23	1.223348525772	3
2	40	2.340653355964	4
2	40	2.340653355964	5
2	55	4.084278025766	6
2	55	4.084278025766	7
2	71	5.828478550066	8
2	71	5.828478550066	9
2	87	7.648588494112	10
2	87	7.648588494112	11
2	103	9.197149357105	12
2	103	9.197149357105	13
2	120	10.586041627295	14
2	120	10.586041627295	15
2	135	12.088656374412	16
2	135	12.088656374412	17
2	151	13.631649773417	18
2	151	13.631649773417	19
2	174	15.163776450198	20
2	174	15.163776450198	21
2	183	16.878670169375	22
2	183	16.878670169375	23
2	200	18.706986640385	24
2	200	18.706986640385	25
2	215	19.979893259618	26
2	215	19.979893259618	27
2	234	21.18158021063	28
2	234	21.18158021063	29
2	248	22.736752938382	30
2	248	22.736752938382	31
2	271	26.646081269451	32
2	271	26.646081269451	33
2	288	29.852820010215	34
2	288	29.852820010215	35
2	301	31.531231288585	36
2	301	31.531231288585	37
2	317	32.629198609954	38
2	317	32.629198609954	39
2	333	34.319317563682	40
2	333	34.319317563682	41
2	350	36.020012911271	42
2	350	36.020012911271	43
2	365	37.62210007285	44
2	365	37.62210007285	45
2	382	38.729461818268	46
2	382	38.729461818268	47
2	400	39.9848187792	48
2	400	39.9848187792	49
2	409	41.750463520865	50
2	409	41.750463520865	51
2	425	42.964175474544	52
2	425	42.964175474544	53
2	452	46.744525370674	54
2	452	46.744525370674	55
2	462	48.662201859328	56
2	462	48.662201859328	57
2	477	49.82180952307	58
2	477	49.82180952307	59
2	495	53.066903978301	60
2	495	53.066903978301	61
2	515	54.188936478232	62
2	515	54.188936478232	63
2	527	56.023058158154	64
2	527	56.023058158154	65
2	543	57.150443208108	66
2	543	57.150443208108	67
2	560	58.169372833985	68
2	560	58.169372833985	69
2	578	59.97734991189	70
2	578	59.97734991189	71
2	591	61.7038929585	72
2	591	61.7038929585	73
2	610	65.209267653515	74
2	610	65.209267653515	75
2	626	67.183591301282	76
2	626	67.183591301282	77
2	644	68.893106633386	78
2	644	68.893106633386	79
2	661	70.075003655899	80
2	661	70.075003655899	81
2	673	71.943553804489	82
2	673	71.943553804489	83
2	689	73.434081178482	84
2	689	73.434081178482	85
2	718	80.248428102483	86
2	718	80.248428102483	87
2	734	81.717373601809	88
2	734	81.717373601809	89
2	750	83.144071064543	90
2	750	83.144071064543	91
2	772	85.459933006119	92
2	772	85.459933006119	93
2	795	87.410391838386	94
2	795	87.410391838386	95
2	804	89.066151077768	96
2	804	89.066151077768	97
2	821	90.569246377908	98
2	821	90.569246377908	99
2	836	91.930278756197	100
2	836	91.930278756197	101
2	855	93.464037342362	102
2	855	93.464037342362	103
2	872	94.650309826969	104
2	872	94.650309826969	105
2	887	96.226541284897	106
2	887	96.226541284897	107
2	901	98.215091654867	108
2	901	98.215091654867	109
2	917	99.999351349268	110
2	917	99.999351349268	111
2	939	101.571209307834	112
2	939	101.571209307834	113
2	948	103.275773637376	114
2	948	103.275773637376	115
2	967	104.927091201484	116
2	967	104.927091201484	117
2	980	106.047285126067	118
2	980	106.047285126067	119
2	996	107.20458663256	120
2	996	107.20458663256	121
2	1012	108.725772566475	122
2	1012	108.725772566475	123
2	1029	110.311410012867	124
2	1029	110.311410012867	125
2	1044	111.976175663973	126
2	1044	111.976175663973	127
2	1067	113.188509602434	128
2	1067	113.188509602434	129
2	1076	114.280531532572	130
2	1076	114.280531532572	131
2	1092	115.667540575051	132
2	1092	115.667540575051	133
2	1110	118.509951197429	134
2	1110	118.509951197429	135
2	1130	123.648858458233	136
2	1130	123.648858458233	137
2	1150	125.66912794232	138
2	1150	125.66912794232	139
2	1162	127.486383227465	140
2	1162	127.486383227465	141
2	1178	129.288778597329	142
2	1178	129.288778597329	143
2	1198	130.547042389873	144
2	1198	130.547042389873	145
2	1210	132.270824826145	146
2	1210	132.270824826145	147
2	1227	133.546220354087	148
2	1227	133.546220354087	149
2	1242	135.022433330463	150
2	1242	135.022433330463	151
2	1265	136.801125171263	152
2	1265	136.801125171263	153
2	1274	138.426670599306	154
2	1274	138.426670599306	155
2	1290	139.837920378034	156
2	1290	139.837920378034	157
2	1309	140.977420111816	158
2	1309	140.977420111816	159
2	1322	142.099086127133	160
2	1322	142.099086127133	161
2	1338	144.033953009093	162
2	1338	144.033953009093	163
2	1354	145.180215761094	164
2	1354	145.180215761094	165
2	1370	146.744782353377	166
2	1370	146.744782353377	167
2	1389	148.680290470753	168
2	1389	148.680290470753	169
2	1402	150.007520556763	170
2	1402	150.007520556763	171
2	1418	151.298358150943	172
2	1418	151.298358150943	173
2	1434	153.152864000075	174
2	1434	153.152864000075	175
2	1457	154.74860019986	176
2	1457	154.74860019986	177
2	1468	157.845013130178	178
2	1468	157.845013130178	179
2	1491	159.020440309132	180
2	1491	159.020440309132	181
2	1501	160.640807568721	182
2	1501	160.640807568721	183
2	1516	162.278505166885	184
2	1516	162.278505166885	185
2	1532	164.026505346991	186
2	1532	164.026505346991	187
2	1551	165.31994129064	188
2	1551	165.31994129064	189
2	1571	166.868470078615	190
2	1571	166.868470078615	191
2	1580	168.676280182025	192
2	1580	168.676280182025	193
2	1597	170.006023130095	194
2	1597	170.006023130095	195
2	1616	171.449448996275	196
2	1616	171.449448996275	197
2	1632	172.522576961871	198
2	1632	172.522576961871	199
2	1644	173.881883740626	200
2	1644	173.881883740626	201
2	1660	175.472214808408	202
2	1660	175.472214808408	203
2	1679	176.799255891539	204
2	1679	176.799255891539	205
2	1692	178.602669739065	206
2	1692	178.602669739065	207
2	1709	180.08115820917	208
2	1709	180.08115820917	209
2	1731	181.544860207606	210
2	1731	181.544860207606	211
2	1741	183.497786068643	212
2	1741	183.497786068643	213
2	1756	184.989097699537	214
2	1756	184.989097699537	215
2	1773	186.209753580638	216
2	1773	186.209753580638	217
2	1792	187.429077008731	218
2	1792	187.429077008731	219
2	1807	188.947011269506	220
2	1807	188.947011269506	221
2	1820	190.857454959957	222
2	1820	190.857454959957	223
2	1842	193.639723848652	224
2	1842	193.639723848652	225
2	1854	194.814594933481	226
2	1854	194.814594933481	227
2	1870	196.627241581961	228
2	1870	196.627241581961	229
2	1889	199.961881977027	230
2	1889	199.961881977027	231
2	1905	201.55909229382	232
2	1905	201.55909229382	233
2	1922	204.002198203431	234
2	1922	204.002198203431	235
2	1939	205.268063058988	236
2	1939	205.268063058988	237
2	1955	207.251262613611	238
2	1955	207.251262613611	239
2	1973	208.448970538819	240
2	1973	208.448970538819	241
2	1986	210.347846457421	242
2	1986	210.347846457421	243
2	2005	212.249015969165	244
2	2005	212.249015969165	245
2	2025	213.346230097096	246
2	2025	213.346230097096	247
2	2034	214.677184646638	248
2	2034	214.677184646638	249
2	2051	216.003802118775	250
2	2051	216.003802118775	251
2	2067	217.497038152418	252
2	2067	217.497038152418	253
2	2083	219.101607288123	254
2	2083	219.101607288123	255
2	2099	220.709127301826	256
2	2099	220.709127301826	257
2	2114	221.674699051814	258
2	2114	221.674699051814	259
2	2130	223.074796487528	260
2	2130	223.074796487528	261
2	2146	224.352798098918	262
2	2146	224.352798098918	263
2	2162	225.73694136369	264
2	2162	225.73694136369	265
2	2178	226.98992764452	266
2	2178	226.98992764452	267
2	2198	228.897879174645	268
2	2198	228.897879174645	269
2	2210	230.021205012598	270
2	2210	230.021205012598	271
2	2231	233.025669720239	272
2	2231	233.025669720239	273
2	2245	234.682662683282	274
2	2245	234.682662683282	275
2	2261	236.600330696625	276
2	2261	236.600330696625	277
2	2277	238.276680606973	278
2	2277	238.276680606973	279
3	10	0.170313894915	0
3	10	0.170313894915	1
3	10	0.170313894915	2
3	27	1.237716614172	3
3	27	1.237716614172	4
3	27	1.237716614172	5
3	45	2.357458191538	6
3	45	2.357458191538	7
3	45	2.357458191538	8
3	59	4.094486325235	9
3	59	4.094486325235	10
3	59	4.094486325235	11
3	77	5.850981012617	12
3	77	5.850981012617	13
3	77	5.850981012617	14
3	93	7.669455912315	15
3	93	7.669455912315	16
3	93	7.669455912315	17
3	106	9.208062063645	18
3	106	9.208062063645	19
3	106	9.208062063645	20
3	123	10.59575342224	21
3	123	10.59575342224	22
3	123	10.59575342224	23
3	138	12.098870916867	24
3	138	12.098870916867	25
3	138	12.098870916867	26
3	157	13.643586374762	27
3	157	13.643586374762	28
3	157	13.643586374762	29
3	170	15.141494457683	30
3	170	15.141494457683	31
3	170	15.141494457683	32
3	189	16.903486716871	33
3	189	16.903486716871	34
3	189	16.903486716871	35
3	205	18.719200643586	36
3	205	18.719200643586	37
3	205	18.719200643586	38
3	218	19.993024042436	39
3	218	19.993024042436	40
3	218	19.993024042436	41
3	237	21.285662543417	42
3	237	21.285662543417	43
3	237	21.285662543417	44
3	253	22.797357403179	45
3	253	22.797357403179	46
3	253	22.797357403179	47
3	270	26.641492339695	48
3	270	26.641492339695	49
3	270	26.641492339695	50
3	289	29.854704832334	51
3	289	29.854704832334	52
3	289	29.854704832334	53
3	307	31.559642073937	54
3	307	31.559642073937	55
3	307	31.559642073937	56
3	323	32.642801113112	57
3	323	32.642801113112	58
3	323	32.642801113112	59
3	336	34.331750381758	60
3	336	34.331750381758	61
3	336	34.331750381758	62
3	355	36.039051374723	63
3	355	36.039051374723	64
3	355	36.039051374723	65
3	368	37.637377948437	66
3	368	37.637377948437	67
3	368	37.637377948437	68
3	387	38.741150642549	69
3	387	38.741150642549	70
3	387	38.741150642549	71
3	415	41.77005303186	72
3	415	41.77005303186	73
3	415	41.77005303186	74
3	428	42.975506466548	75
3	428	42.975506466548	76
3	428	42.975506466548	77
3	448	46.722658638474	78
3	448	46.722658638474	79
3	448	46.722658638474	80
3	467	48.67461432944	81
3	467	48.67461432944	82
3	467	48.67461432944	83
3	480	49.832062960461	84
3	480	49.832062960461	85
3	480	49.832062960461	86
3	498	53.121226866334	87
3	498	53.121226866334	88
3	498	53.121226866334	89
3	514	54.186589834462	90
3	514	54.186589834462	91
3	514	54.186589834462	92
3	531	56.035181224132	93
3	531	56.035181224132	94
3	531	56.035181224132	95
3	546	57.161028746861	96
3	546	57.161028746861	97
3	546	57.161028746861	98
3	565	58.179701424629	99
3	565	58.179701424629	100
3	565	58.179701424629	101
3	579	59.982317385403	102
3	579	59.982317385403	103
3	579	59.982317385403	104
3	595	61.714337767108	105
3	595	61.714337767108	106
3	595	61.714337767108	107
3	615	65.221957396542	108
3	615	65.221957396542	109
3	615	65.221957396542	110
3	631	67.201830885253	111
3	631	67.201830885253	112
3	631	67.201830885253	113
3	647	68.913812858298	114
3	647	68.913812858298	115
3	647	68.913812858298	116
3	660	70.072043371883	117
3	660	70.072043371883	118
3	660	70.072043371883	119
3	676	71.962073388067	120
3	676	71.962073388067	121
3	676	71.962073388067	122
3	693	73.444444272819	123
3	693	73.444444272819	124
3	693	73.444444272819	125
3	721	80.266934553619	126
3	721	80.266934553619	127
3	721	80.266934553619	128
3	740	81.739620410346	129
3	740	81.739620410346	130
3	740	81.739620410346	131
3	756	83.157524628155	132
3	756	83.157524628155	133
3	756	83.157524628155	134
3	778	85.482516661553	135
3	778	85.482516661553	136
3	778	85.482516661553	137
3	791	87.385977152593	138
3	791	87.385977152593	139
3	791	87.385977152593	140
3	810	89.081669566309	141
3	810	89.081669566309	142
3	810	89.081669566309	143
3	826	90.579843848955	144
3	826	90.579843848955	145
3	826	90.579843848955	146
3	839	91.954624624677	147
3	839	91.954624624677	148
3	839	91.954624624677	149
3	858	93.475994632133	150
3	858	93.475994632133	151
3	858	93.475994632133	152
3	871	94.642293709719	153
3	871	94.642293709719	154
3	871	94.642293709719	155
3	890	96.248404847399	156
3	890	96.248404847399	157
3	890	96.248404847399	158
3	906	98.233930642082	159
3	906	98.233930642082	160
3	906	98.233930642082	161
3	922	100.02897203264	162
3	922	100.02897203264	163
3	922	100.02897203264	164
3	935	101.56061985336	165
3	935	101.56061985336	166
3	935	101.56061985336	167
3	951	103.289675784016	168
3	951	103.289675784016	169
3	951	103.289675784016	170
3	970	104.944033673327	171
3	970	104.944033673327	172
3	970	104.944033673327	173
3	984	106.063967050813	174
3	984	106.063967050813	175
3	984	106.063967050813	176
3	999	107.220303681358	177
3	999	107.220303681358	178
3	999	107.220303681358	179
3	1015	108.736347651622	180
3	1015	108.736347651622	181
3	1015	108.736347651622	182
3	1032	110.316710403328	183
3	1032	110.316710403328	184
3	1032	110.316710403328	185
3	1050	112.000555854009	186
3	1050	112.000555854009	187
3	1050	112.000555854009	188
3	1063	113.168015047429	189
3	1063	113.168015047429	190
3	1063	113.168015047429	191
3	1080	114.304896400513	192
3	1080	114.304896400513	193
3	1080	114.304896400513	194
3	1098	115.709639380708	195
3	1098	115.709639380708	196
3	1098	115.709639380708	197
3	1113	118.523790662115	198
3	1113	118.523790662115	199
3	1113	118.523790662115	200
3	1134	123.661899992102	201
3	1134	123.661899992102	202
3	1134	123.661899992102	203
3	1149	125.659784707611	204
3	1149	125.659784707611	205
3	1149	125.659784707611	206
3	1166	127.506979160218	207
3	1166	127.506979160218	208
3	1166	127.506979160218	209
3	1182	129.299757016925	210
3	1182	129.299757016925	211
3	1182	129.299757016925	212
3	1197	130.538181879179	213
3	1197	130.538181879179	214
3	1197	130.538181879179	215
3	1216	132.293325094681	216
3	1216	132.293325094681	217
3	1216	132.293325094681	218
3	1232	133.5636305571	219
3	1232	133.5636305571	220
3	1232	133.5636305571	221
3	1248	135.044300983776	222
3	1248	135.044300983776	223
3	1248	135.044300983776	224
3	1261	136.781399146518	225
3	1261	136.781399146518	226
3	1261	136.781399146518	227
3	1280	138.447837024245	228
3	1280	138.447837024245	229
3	1280	138.447837024245	230
3	1296	139.874608316671	231
3	1296	139.874608316671	232
3	1296	139.874608316671	233
3	1312	141.015338545467	234
3	1312	141.015338545467	235
3	1312	141.015338545467	236
3	1326	142.109131413249	237
3	1326	142.109131413249	238
3	1326	142.109131413249	239
3	1344	144.059805313502	240
3	1344	144.059805313502	241
3	1344	144.059805313502	242
3	1360	145.200389543611	243
3	1360	145.200389543611	244
3	1360	145.200389543611	245
3	1373	146.759546854437	246
3	1373	146.759546854437	247
3	1373	146.759546854437	248
3	1392	148.690971076373	249
3	1392	148.690971076373	250
3	1392	148.690971076373	251
3	1405	150.021412040538	252
3	1405	150.021412040538	253
3	1405	150.021412040538	254
3	1421	151.312873186462	255
3	1421	151.312873186462	256
3	1421	151.312873186462	257
3	1438	153.165033797863	258
3	1438	153.165033797863	259
3	1438	153.165033797863	260
3	1453	154.723198781588	261
3	1453	154.723198781588	262
3	1453	154.723198781588	263
3	1472	157.858511076149	264
3	1472	157.858511076149	265
3	1472	157.858511076149	266
3	1487	159.00994054602	267
3	1487	159.00994054602	268
3	1487	159.00994054602	269
3	1504	160.644871240056	270
3	1504	160.644871240056	271
3	1504	160.644871240056	272
3	1519	162.290015127384	273
3	1519	162.290015127384	274
3	1519	162.290015127384	275
3	1536	164.046522109901	276
3	1536	164.046522109901	277
3	1536	164.046522109901	278
3	1552	165.329514294121	279
3	1552	165.329514294121	280
3	1552	165.329514294121	281
3	1567	166.844953534649	282
3	1567	166.844953534649	283
3	1567	166.844953534649	284
3	1584	168.686465448797	285
3	1584	168.686465448797	286
3	1584	168.686465448797	287
3	1600	170.015212780871	288
3	1600	170.015212780871	289
3	1600	170.015212780871	290
3	1615	171.44883749212	291
3	1615	171.44883749212	292
3	1615	171.44883749212	293
3	1631	172.518275120214	294
3	1631	172.518275120214	295
3	1631	172.518275120214	296
3	1650	173.906028245115	297
3	1650	173.906028245115	298
3	1650	173.906028245115	299
3	1666	175.514510488141	300
3	1666	175.514510488141	301
3	1666	175.514510488141	302
3	1682	176.823622600347	303
3	1682	176.823622600347	304
3	1682	176.823622600347	305
3	1695	178.614789134473	306
3	1695	178.614789134473	307
3	1695	178.614789134473	308
3	1714	180.096249785963	309
3	1714	180.096249785963	310
3	1714	180.096249785963	311
3	1727	181.531810158065	312
3	1727	181.531810158065	313
3	1727	181.531810158065	314
3	1746	183.512047231293	315
3	1746	183.512047231293	316
3	1746	183.512047231293	317
3	1762	185.044240428114	318
3	1762	185.044240428114	319
3	1762	185.044240428114	320
3	1778	186.233559813437	321
3	1778	186.233559813437	322
3	1778	186.233559813437	323
3	1791	187.428042250828	324
3	1791	187.428042250828	325
3	1791	187.428042250828	326
3	1810	189.009748352269	327
3	1810	189.009748352269	328
3	1810	189.009748352269	329
3	1824	190.876251667755	330
3	1824	190.876251667755	331
3	1824	190.876251667755	332
3	1841	193.637140842991	333
3	1841	193.637140842991	334
3	1841	193.637140842991	335
3	1857	194.830712564657	336
3	1857	194.830712564657	337
3	1857	194.830712564657	338
3	1876	196.646990240592	339
3	1876	196.646990240592	340
3	1876	196.646990240592	341
3	1894	199.982752659306	342
3	1894	199.982752659306	343
3	1894	199.982752659306	344
3	1910	201.577979468618	345
3	1910	201.577979468618	346
3	1910	201.577979468618	347
3	1928	204.036123269998	348
3	1928	204.036123269998	349
3	1928	204.036123269998	350
3	1942	205.273378543342	351
3	1942	205.273378543342	352
3	1942	205.273378543342	353
3	1958	207.254755298028	354
3	1958	207.254755298028	355
3	1958	207.254755298028	356
3	1974	208.456368340383	357
3	1974	208.456368340383	358
3	1974	208.456368340383	359
3	1992	210.380299360982	360
3	1992	210.380299360982	361
3	1992	210.380299360982	362
3	2006	212.256012231765	363
3	2006	212.256012231765	364
3	2006	212.256012231765	365
3	2021	213.327224052976	366
3	2021	213.327224052976	367
3	2021	213.327224052976	368
3	2037	214.694344069883	369
3	2037	214.694344069883	370
3	2037	214.694344069883	371
3	2056	216.021107486687	372
3	2056	216.021107486687	373
3	2056	216.021107486687	374
3	2072	217.512668218861	375
3	2072	217.512668218861	376
3	2072	217.512668218861	377
3	2088	219.114613196888	378
3	2088	219.114613196888	379
3	2088	219.114613196888	380
3	2104	220.728514568636	381
3	2104	220.728514568636	382
3	2104	220.728514568636	383
3	2120	221.692155752252	384
3	2120	221.692155752252	385
3	2120	221.692155752252	386
3	2136	223.096407607496	387
3	2136	223.096407607496	388
3	2136	223.096407607496	389
3	2149	224.378037529616	390
3	2149	224.378037529616	391
3	2149	224.378037529616	392
3	2168	225.766503543615	393
3	2168	225.766503543615	394
3	2168	225.766503543615	395
3	2184	227.020989137585	396
3	2184	227.020989137585	397
3	2184	227.020989137585	398
3	2197	228.896791983594	399
3	2197	228.896791983594	400
3	2197	228.896791983594	401
3	2216	230.041071066296	402
3	2216	230.041071066296	403
3	2216	230.041071066296	404
3	2234	233.068806403241	405
3	2234	233.068806403241	406
3	2234	233.068806403241	407
3	2250	234.700115343901	408
3	2250	234.700115343901	409
3	2250	234.700115343901	410
3	2266	236.627971087548	411
3	2266	236.627971087548	412
3	2266	236.627971087548	413
3	2282	238.31154251666	414
3	2282	238.31154251666	415
3	2282	238.31154251666	416
4	11	0.175318540583	0
4	11	0.175318540583	1
4	24	1.227718932548	2
4	24	1.227718932548	3
4	39	2.338624312093	4
4	39	2.338624312093	5
4	56	4.086678039857	6
4	56	4.086678039857	7
4	72	5.838107204239	8
4	72	5.838107204239	9
4	88	7.651257417197	10
4	88	7.651257417197	11
4	110	9.223966172629	12
4	110	9.223966172629	13
4	119	10.579033864009	14
4	119	10.579033864009	15
4	142	12.121491321109	16
4	142	12.121491321109	17
4	152	13.631709895174	18
4	152	13.631709895174	19
4	167	15.123706978374	20
4	167	15.123706978374	21
4	186	16.890584424636	22
4	186	16.890584424636	23
4	199	18.706933172621	24
4	199	18.706933172621	25
4	219	19.999483938091	26
4	219	19.999483938091	27
4	231	21.169508916863	28
4	231	21.169508916863	29
4	247	22.733446111813	30
4	247	22.733446111813	31
4	267	26.629776508424	32
4	267	26.629776508424	33
4	285	29.841027708458	34
4	285	29.841027708458	35
4	302	31.532905229147	36
4	302	31.532905229147	37
4	318	32.629657111315	38
4	318	32.629657111315	39
4	340	34.35784762765	40
4	340	34.35784762765	41
4	349	36.013264117185	42
4	349	36.013264117185	43
4	372	37.64756503627	44
4	372	37.64756503627	45
4	381	38.723888033112	46
4	381	38.723888033112	47
4	397	39.969158773963	48
4	397	39.969158773963	49
4	410	41.754166245086	50
4	410	41.754166245086	51
4	429	42.976983119599	52
4	429	42.976983119599	53
4	445	46.704027266924	54
4	445	46.704027266924	55
4	461	48.654554815024	56
4	461	48.654554815024	57
4	481	49.832346886366	58
4	481	49.832346886366	59
4	502	53.132552557278	60
4	502	53.132552557278	61
4	511	54.171376407361	62
4	511	54.171376407361	63
4	528	56.03203089412	64
4	528	56.03203089412	65
4	550	57.194927405041	66
4	550	57.194927405041	67
4	559	58.167399245071	68
4	559	58.167399245071	69
4	575	59.964554876592	70
4	575	59.964554876592	71
4	592	61.712527014773	72
4	592	61.712527014773	73
4	609	65.206585714058	74
4	609	65.206585714058	75
4	625	67.179013624371	76
4	625	67.179013624371	77
4	641	68.882405292186	78
4	641	68.882405292186	79
4	657	70.061944314639	80
4	657	70.061944314639	81
4	680	71.976208043871	82
4	680	71.976208043871	83
4	690	73.441621686479	84
4	690	73.441621686479	85
4	707	76.858301845297	86
4	707	76.858301845297	87
4	725	80.301581206611	88
4	725	80.301581206611	89
4	737	81.729395582927	90
4	737	81.729395582927	91
4	751	83.144092157313	92
4	751	83.144092157313	93
4	773	85.464821072324	94
4	773	85.464821072324	95
4	788	87.349295368219	96
4	788	87.349295368219	97
4	805	89.068174539839	98
4	805	89.068174539839	99
4	820	90.566203811814	100
4	820	90.566203811814	101
4	843	91.975605170965	102
4	843	91.975605170965	103
4	852	93.443763258359	104
4	852	93.443763258359	105
4	868	94.626357479682	106
4	868	94.626357479682	107
4	884	96.215881231995	108
4	884	96.215881231995	109
4	900	98.210281212349	110
4	900	98.210281212349	111
4	916	99.998305179635	112
4	916	99.998305179635	113
4	932	101.50800279632	114
4	932	101.50800279632	115
4	955	103.30504385487	116
4	955	103.30504385487	117
4	964	104.916043585474	118
4	964	104.916043585474	119
4	981	106.055557034046	120
4	981	106.055557034046	121
4	1003	107.237903424116	122
4	1003	107.237903424116	123
4	1016	108.74237714029	124
4	1016	108.74237714029	125
4	1028	110.304780480862	126
4	1028	110.304780480862	127
4	1047	111.986825452211	128
4	1047	111.986825452211	129
4	1060	113.120724064531	130
4	1060	113.120724064531	131
4	1079	114.302341329035	132
4	1079	114.302341329035	133
4	1093	115.672240277167	134
4	1093	115.672240277167	135
4	1117	118.545649541937	136
4	1117	118.545649541937	137
4	1131	123.653013454128	138
4	1131	123.653013454128	139
4	1146	125.633937760595	140
4	1146	125.633937760595	141
4	1165	127.500608012302	142
4	1165	127.500608012302	143
4	1179	129.290633923072	144
4	1179	129.290633923072	145
4	1194	130.527726909468	146
4	1194	130.527726909468	147
4	1211	132.273948336128	148
4	1211	132.273948336128	149
4	1226	133.540141383992	150
4	1226	133.540141383992	151
4	1243	135.028743146361	152
4	1243	135.028743146361	153
4	1258	136.741512461662	154
4	1258	136.741512461662	155
4	1275	138.428035781051	156
4	1275	138.428035781051	157
4	1291	139.845239691228	158
4	1291	139.845239691228	159
4	1306	140.958152430871	160
4	1306	140.958152430871	161
4	1323	142.108334494063	162
4	1323	142.108334494063	163
4	1341	144.049468493862	164
4	1341	144.049468493862	165
4	1355	145.187752234017	166
4	1355	145.187752234017	167
4	1377	146.775763574439	168
4	1377	146.775763574439	169
4	1386	148.664327322326	170
4	1386	148.664327322326	171
4	1409	150.058352094268	172
4	1409	150.058352094268	173
4	1425	151.326705555278	174
4	1425	151.326705555278	175
4	1435	153.155797826653	176
4	1435	153.155797826653	177
4	1450	154.710024255871	178
4	1450	154.710024255871	179
4	1469	157.849828700691	180
4	1469	157.849828700691	181
4	1484	158.999878717481	182
4	1484	158.999878717481	183
4	1500	160.633114292215	184
4	1500	160.633114292215	185
4	1523	162.326003658322	186
4	1523	162.326003658322	187
4	1535	164.039918911764	188
4	1535	164.039918911764	189
4	1548	165.309527635167	190
4	1548	165.309527635167	191
4	1564	166.825373360214	192
4	1564	166.825373360214	193
4	1581	168.680899408585	194
4	1581	168.680899408585	195
4	1596	170.001603857644	196
4	1596	170.001603857644	197
4	1612	171.434233735187	198
4	1612	171.434233735187	199
4	1628	172.504857522986	200
4	1628	172.504857522986	201
4	1645	173.882260254227	202
4	1645	173.882260254227	203
4	1661	175.477903511184	204
4	1661	175.477903511184	205
4	1676	176.75191011936	206
4	1676	176.75191011936	207
4	1699	178.632251054283	208
4	1699	178.632251054283	209
4	1708	180.080438916039	210
4	1708	180.080438916039	211
4	1724	181.517841855943	212
4	1724	181.517841855943	213
4	1740	183.492262608083	214
4	1740	183.492262608083	215
4	1759	185.011965384156	216
4	1759	185.011965384156	217
4	1772	186.202329359743	218
4	1772	186.202329359743	219
4	1788	187.415203432378	220
4	1788	187.415203432378	221
4	1804	188.936517559141	222
4	1804	188.936517559141	223
4	1823	190.874950983063	224
4	1823	190.874950983063	225
4	1838	193.626158330031	226
4	1838	193.626158330031	227
4	1861	194.844429594814	228
4	1861	194.844429594814	229
4	1871	196.634054100158	230
4	1871	196.634054100158	231
4	1888	199.95456244762	232
4	1888	199.95456244762	233
4	1904	201.554391292307	234
4	1904	201.554391292307	235
4	1923	204.002626446903	236
4	1923	204.002626446903	237
4	1938	205.262236630771	238
4	1938	205.262236630771	239
4	1954	207.244140470713	240
4	1954	207.244140470713	241
4	1970	208.435008845955	242
4	1970	208.435008845955	243
4	1989	210.361622405439	244
4	1989	210.361622405439	245
4	2002	212.237676393772	246
4	2002	212.237676393772	247
4	2018	213.302756742857	248
4	2018	213.302756742857	249
4	2041	214.714723189262	250
4	2041	214.714723189262	251
4	2050	216.000826651909	252
4	2050	216.000826651909	253
4	2066	217.493044515731	254
4	2066	217.493044515731	255
4	2082	219.094600102672	256
4	2082	219.094600102672	257
4	2098	220.70735637226	258
4	2098	220.70735637226	259
4	2115	221.680601996953	260
4	2115	221.680601996953	261
4	2131	223.075601275418	262
4	2131	223.075601275418	263
4	2153	224.400376682166	264
4	2153	224.400376682166	265
4	2163	225.743796453499	266
4	2163	225.743796453499	267
4	2179	226.996498959656	268
4	2179	226.996498959656	269
4	2194	228.885989639656	270
4	2194	228.885989639656	271
4	2211	230.028085746877	272
4	2211	230.028085746877	273
4	2228	233.01504799451	274
4	2228	233.01504799451	275
4	2244	234.676411431826	276
4	2244	234.676411431826	277
4	2260	236.593362440761	278
4	2260	236.593362440761	279
4	2276	238.266696974305	280
4	2276	238.266696974305	281
5	14	0.180313894915	0
5	48	2.367458191538	1
5	64	4.104486325235	2
5	80	5.860981012617	3
5	96	7.679455912315	4
5	109	9.218062063645	5
5	128	10.60575342224	6
5	141	12.108870916867	7
5	160	13.653586374762	8
5	173	15.151494457683	9
5	192	16.913486716871	10
5	208	18.729200643586	11
5	222	20.003024042436	12
5	240	21.295662543417	13
5	274	26.651492339695	14
5	294	29.864704832334	15
5	310	31.569642073937	16
5	326	32.652801113112	17
5	339	34.341750381758	18
5	358	36.049051374723	19
5	418	41.78005303186	20
5	432	42.985506466548	21
5	451	46.732658638474	22
5	470	48.68461432944	23
5	501	53.131226866334	24
5	518	54.196589834462	25
5	536	56.045181224132	26
5	549	57.171028746861	27
5	568	58.189701424629	28
5	584	59.992317385403	29
5	600	61.724337767108	30
5	618	65.231957396542	31
5	634	67.211830885253	32
5	650	68.923812858298	33
5	664	70.082043371883	34
5	679	71.972073388067	35
5	698	73.454444272819	36
5	724	80.276934553619	37
5	759	83.167524628155	38
5	781	85.492516661553	39
5	794	87.395977152593	40
5	813	89.091669566309	41
5	829	90.589843848955	42
5	842	91.964624624677	43
5	861	93.485994632133	44
5	875	94.652293709719	45
5	893	96.258404847399	46
5	909	98.243930642082	47
5	925	100.03897203264	48
5	938	101.57061985336	49
5	954	103.299675784016	50
5	973	104.954033673327	51
5	989	106.073967050813	52
5	1002	107.230303681358	53
5	1019	108.746347651622	54
5	1037	110.326710403328	55
5	1053	112.010555854009	56
5	1066	113.178015047429	57
5	1085	114.314896400513	58
5	1101	115.719639380708	59
5	1116	118.533790662115	60
5	1139	123.671899992102	61
5	1153	125.669784707611	62
5	1171	127.516979160218	63
5	1187	129.309757016925	64
5	1201	130.548181879179	65
5	1219	132.303325094681	66
5	1235	133.5736305571	67
5	1251	135.054300983776	68
5	1264	136.791399146518	69
5	1283	138.457837024245	70
5	1299	139.884608316671	71
5	1315	141.025338545467	72
5	1331	142.119131413249	73
5	1347	144.069805313502	74
5	1363	145.210389543611	75
5	1376	146.769546854437	76
5	1395	148.700971076373	77
5	1408	150.031412040538	78
5	1424	151.322873186462	79
5	1443	153.175033797863	80
5	1456	154.733198781588	81
5	1477	157.868511076149	82
5	1490	159.01994054602	83
5	1509	160.654871240056	84
5	1522	162.300015127384	85
5	1541	164.056522109901	86
5	1557	165.339514294121	87
5	1570	166.854953534649	88
5	1589	168.696465448797	89
5	1605	170.025212780871	90
5	1619	171.45883749212	91
5	1635	172.528275120214	92
5	1653	173.916028245115	93
5	1669	175.524510488141	94
5	1685	176.833622600347	95
5	1698	178.624789134473	96
5	1730	181.541810158065	97
5	1749	183.522047231293	98
5	1765	185.054240428114	99
5	1781	186.243559813437	100
5	1795	187.438042250828	101
5	1813	189.019748352269	102
5	1829	190.886251667755	103
5	1845	193.647140842991	104
5	1860	194.840712564657	105
5	1879	196.656990240592	106
5	1897	199.992752659306	107
5	1913	201.587979468618	108
5	1931	204.046123269998	109
5	1947	205.283378543342	110
5	1963	207.264755298028	111
5	1979	208.466368340383	112
5	2011	212.266012231765	113
5	2024	213.337224052976	114
5	2040	214.704344069883	115
5	2059	216.031107486687	116
5	2107	220.738514568636	117
5	2123	221.702155752252	118
5	2139	223.106407607496	119
5	2152	224.388037529616	120
5	2171	225.776503543615	121
5	2187	227.030989137585	122
5	2201	228.906791983594	123
5	2219	230.051071066296	124
5	2237	233.078806403241	125
5	2253	234.710115343901	126
5	2285	238.32154251666	127

