version 2
run General-1-20231008-05:32:59-14160
attr configname General
attr datetime 20231008-05:32:59
attr experiment General
attr inifile omnetpp.ini
attr iterationvars ""
attr iterationvarsf ""
attr measurement ""
attr network Reliability
attr processid 14160
attr repetition 1
attr replication #1
attr resultdir results
attr runnumber 1
attr seedset 1
param Reliability.node[*].transmissionTime "uniform(1s, 2s)"
param Reliability.node[*].delayTime "uniform(0.01s, 0.2s)"
param Reliability.node[*].processingTime exponential(0.01s)
param Reliability.node[*].lossProbability 0.1

vector 0 Reliability.node[0] txVector ETV
vector 1 Reliability.node[1] txVector ETV
vector 2 Reliability.node[3] txVector ETV
vector 3 Reliability.node[2] txVector ETV
vector 4 Reliability.node[4] txVector ETV
vector 5 Reliability.node[5] rxVector ETV
0	1	0.089234179703	0
0	17	2.086418987836	1
0	33	4.021958060448	2
0	49	5.479162869628	3
0	65	7.344183114942	4
0	81	8.755970993897	5
0	97	10.416606718561	6
0	113	11.536097192325	7
0	129	13.150035510658	8
0	145	14.915520617858	9
0	161	16.807656486405	10
0	177	18.497861076033	11
0	193	19.995970145453	12
0	209	21.767565140853	13
0	225	23.532157711339	14
0	241	24.724113787412	15
0	243	26.120427075661	16
0	245	27.22779238399	17
0	261	28.737602662182	18
0	277	30.307669320031	19
0	293	32.059542289357	20
0	309	33.675871232179	21
0	325	34.828008389453	22
0	341	36.809765024463	23
0	357	38.341591470762	24
0	373	40.105833083278	25
0	389	42.036846011764	26
0	405	43.202252124556	27
0	421	44.210254835318	28
0	434	45.819461823561	29
0	450	47.767432034368	30
0	466	49.707539521044	31
0	482	50.993258375328	32
0	494	52.886147079876	33
0	496	54.306340760438	34
0	512	55.985409597753	35
0	524	57.560121105638	36
0	540	59.315203288457	37
0	556	60.716682874019	38
0	572	62.060029113552	39
0	588	63.587743758576	40
0	604	64.930432666678	41
0	620	66.61884591461	42
0	636	68.535151466381	43
0	652	69.783185025564	44
0	668	70.935856674918	45
0	684	72.721152705028	46
0	690	74.547559698466	47
0	706	76.198864031471	48
0	722	77.45593332977	49
0	738	78.598939162567	50
0	751	79.734367065485	51
0	767	81.460505502419	52
0	783	82.736351402131	53
0	799	84.039222722993	54
0	815	85.258746812007	55
0	817	86.953153664366	56
0	833	88.410131571701	57
0	846	89.687537037421	58
0	862	90.75426203071	59
0	878	92.204348775911	60
0	887	93.329990152622	61
0	903	94.610674944127	62
0	919	96.306680338111	63
0	935	97.796379947456	64
0	951	99.596041140499	65
0	967	100.901612754565	66
0	983	102.168700305166	67
0	999	103.691496338582	68
0	1001	104.819303341562	69
0	1017	106.226006215325	70
0	1033	107.386422603976	71
0	1049	108.564475959752	72
0	1051	110.191397908496	73
0	1053	111.902493227858	74
0	1055	113.095953798972	75
0	1071	114.164384859268	76
0	1087	115.789191938823	77
0	1103	117.402746112205	78
0	1119	118.43983408029	79
0	1121	119.836633190399	80
0	1137	121.699544912323	81
0	1139	123.507243945615	82
0	1155	124.611912555413	83
0	1171	126.417523877814	84
0	1187	127.941799780938	85
0	1203	129.124394069544	86
0	1205	130.814469432809	87
0	1221	131.982555763681	88
0	1237	133.600454209956	89
0	1253	135.13313148718	90
0	1269	136.94608723547	91
0	1271	138.284110617243	92
0	1287	140.075090778644	93
0	1303	141.522778003595	94
0	1319	143.416094342365	95
0	1335	144.947552664557	96
0	1351	146.208816871166	97
0	1367	148.186534725714	98
0	1383	149.947377925159	99
0	1399	151.305572087762	100
0	1415	152.506879299299	101
0	1431	154.105459761459	102
0	1447	155.555597699599	103
0	1463	157.542699345739	104
0	1479	158.671212764576	105
0	1492	160.290546948442	106
0	1508	162.151758588969	107
0	1524	163.64330373856	108
0	1537	164.937519427275	109
0	1553	165.951522986291	110
0	1569	167.262490654251	111
0	1585	168.787362823615	112
0	1601	169.818559413662	113
0	1617	171.62912917638	114
0	1633	173.019202557046	115
0	1649	174.790873648951	116
0	1665	176.328386674289	117
0	1681	177.885324321108	118
0	1697	179.547486301631	119
0	1713	181.055962565707	120
0	1729	182.664272188095	121
0	1745	183.96929836774	122
0	1761	185.721184085475	123
0	1777	186.812172058856	124
0	1793	187.825186548175	125
0	1809	189.461726836746	126
0	1825	190.526566034534	127
0	1841	191.856834642475	128
0	1857	193.224197235077	129
0	1873	194.229708061439	130
0	1889	195.454789938523	131
0	1905	196.643996594359	132
0	1921	198.228526098539	133
0	1937	199.443615795464	134
0	1953	200.78581105394	135
0	1969	202.526289123461	136
0	1985	203.884628862027	137
0	2001	205.591660614941	138
0	2017	207.070240830654	139
0	2033	208.578651031131	140
0	2049	210.212374814438	141
0	2051	212.094458745212	142
0	2067	213.524133407629	143
0	2083	214.980691915263	144
0	2099	216.335653827876	145
0	2115	218.266764399713	146
0	2131	219.278843212292	147
0	2147	221.115705416888	148
0	2156	222.740533550387	149
0	2172	224.365354847746	150
0	2188	225.604801079841	151
0	2204	227.2037863679	152
0	2220	228.211105338182	153
0	2236	229.532091710834	154
0	2249	231.3203928991	155
0	2265	232.867886712427	156
0	2281	233.957689767123	157
0	2297	235.42849219416	158
0	2313	236.634214515218	159
0	2329	238.170551053134	160
1	3	0.126198958082	0
1	3	0.126198958082	1
1	3	0.126198958082	2
1	19	2.115147224505	3
1	19	2.115147224505	4
1	19	2.115147224505	5
1	35	4.037591512761	6
1	35	4.037591512761	7
1	35	4.037591512761	8
1	51	5.506832381814	9
1	51	5.506832381814	10
1	51	5.506832381814	11
1	67	7.356383983389	12
1	67	7.356383983389	13
1	67	7.356383983389	14
1	83	8.769516270671	15
1	83	8.769516270671	16
1	83	8.769516270671	17
1	99	10.434046900687	18
1	99	10.434046900687	19
1	99	10.434046900687	20
1	115	11.577455336521	21
1	115	11.577455336521	22
1	115	11.577455336521	23
1	131	13.160499570856	24
1	131	13.160499570856	25
1	131	13.160499570856	26
1	147	14.930262089399	27
1	147	14.930262089399	28
1	147	14.930262089399	29
1	163	16.828090610535	30
1	163	16.828090610535	31
1	163	16.828090610535	32
1	179	18.508627640627	33
1	179	18.508627640627	34
1	179	18.508627640627	35
1	195	20.009556349526	36
1	195	20.009556349526	37
1	195	20.009556349526	38
1	211	21.783864849572	39
1	211	21.783864849572	40
1	211	21.783864849572	41
1	227	23.548399735915	42
1	227	23.548399735915	43
1	227	23.548399735915	44
1	247	27.238869742139	45
1	247	27.238869742139	46
1	247	27.238869742139	47
1	263	28.753014248345	48
1	263	28.753014248345	49
1	263	28.753014248345	50
1	279	30.323252207835	51
1	279	30.323252207835	52
1	279	30.323252207835	53
1	295	32.069908923347	54
1	295	32.069908923347	55
1	295	32.069908923347	56
1	311	33.687634052847	57
1	311	33.687634052847	58
1	311	33.687634052847	59
1	327	34.860359636499	60
1	327	34.860359636499	61
1	327	34.860359636499	62
1	343	36.820922905449	63
1	343	36.820922905449	64
1	343	36.820922905449	65
1	359	38.353983357838	66
1	359	38.353983357838	67
1	359	38.353983357838	68
1	375	40.124427089739	69
1	375	40.124427089739	70
1	375	40.124427089739	71
1	391	42.058463395405	72
1	391	42.058463395405	73
1	391	42.058463395405	74
1	407	43.238336532475	75
1	407	43.238336532475	76
1	407	43.238336532475	77
1	423	44.220609529232	78
1	423	44.220609529232	79
1	423	44.220609529232	80
1	436	45.847013137151	81
1	436	45.847013137151	82
1	436	45.847013137151	83
1	452	47.786155112057	84
1	452	47.786155112057	85
1	452	47.786155112057	86
1	468	49.724277938838	87
1	468	49.724277938838	88
1	468	49.724277938838	89
1	484	51.011882492062	90
1	484	51.011882492062	91
1	484	51.011882492062	92
1	498	54.34142477894	93
1	498	54.34142477894	94
1	498	54.34142477894	95
1	514	56.005300260657	96
1	514	56.005300260657	97
1	514	56.005300260657	98
1	526	57.582096284095	99
1	526	57.582096284095	100
1	526	57.582096284095	101
1	542	59.32902151577	102
1	542	59.32902151577	103
1	542	59.32902151577	104
1	558	60.742659884959	105
1	558	60.742659884959	106
1	558	60.742659884959	107
1	574	62.086232134903	108
1	574	62.086232134903	109
1	574	62.086232134903	110
1	590	63.598450229655	111
1	590	63.598450229655	112
1	590	63.598450229655	113
1	606	64.948860616412	114
1	606	64.948860616412	115
1	606	64.948860616412	116
1	622	66.65288495538	117
1	622	66.65288495538	118
1	622	66.65288495538	119
1	638	68.564234750585	120
1	638	68.564234750585	121
1	638	68.564234750585	122
1	654	69.802908511457	123
1	654	69.802908511457	124
1	654	69.802908511457	125
1	670	70.946082510171	126
1	670	70.946082510171	127
1	670	70.946082510171	128
1	686	72.7504021019	129
1	686	72.7504021019	130
1	686	72.7504021019	131
1	692	74.569717352057	132
1	692	74.569717352057	133
1	692	74.569717352057	134
1	708	76.218869000552	135
1	708	76.218869000552	136
1	708	76.218869000552	137
1	724	77.489090887838	138
1	724	77.489090887838	139
1	724	77.489090887838	140
1	740	78.613335151048	141
1	740	78.613335151048	142
1	740	78.613335151048	143
1	753	79.760726724327	144
1	753	79.760726724327	145
1	753	79.760726724327	146
1	769	81.473059464584	147
1	769	81.473059464584	148
1	769	81.473059464584	149
1	785	82.753065401895	150
1	785	82.753065401895	151
1	785	82.753065401895	152
1	801	84.062621830776	153
1	801	84.062621830776	154
1	801	84.062621830776	155
1	819	86.967636472633	156
1	819	86.967636472633	157
1	819	86.967636472633	158
1	835	88.437156339826	159
1	835	88.437156339826	160
1	835	88.437156339826	161
1	848	89.703672707462	162
1	848	89.703672707462	163
1	848	89.703672707462	164
1	864	90.770764296728	165
1	864	90.770764296728	166
1	864	90.770764296728	167
1	880	92.223985575863	168
1	880	92.223985575863	169
1	880	92.223985575863	170
1	889	93.354960831011	171
1	889	93.354960831011	172
1	889	93.354960831011	173
1	905	94.628773087946	174
1	905	94.628773087946	175
1	905	94.628773087946	176
1	921	96.338696407118	177
1	921	96.338696407118	178
1	921	96.338696407118	179
1	937	97.813344197513	180
1	937	97.813344197513	181
1	937	97.813344197513	182
1	953	99.612663859265	183
1	953	99.612663859265	184
1	953	99.612663859265	185
1	969	100.93284405347	186
1	969	100.93284405347	187
1	969	100.93284405347	188
1	985	102.180466935921	189
1	985	102.180466935921	190
1	985	102.180466935921	191
1	1003	104.833710276949	192
1	1003	104.833710276949	193
1	1003	104.833710276949	194
1	1019	106.257148348068	195
1	1019	106.257148348068	196
1	1019	106.257148348068	197
1	1035	107.405179816413	198
1	1035	107.405179816413	199
1	1035	107.405179816413	200
1	1057	113.127127808238	201
1	1057	113.127127808238	202
1	1057	113.127127808238	203
1	1073	114.174964261782	204
1	1073	114.174964261782	205
1	1073	114.174964261782	206
1	1089	115.803048143604	207
1	1089	115.803048143604	208
1	1089	115.803048143604	209
1	1105	117.415666685492	210
1	1105	117.415666685492	211
1	1105	117.415666685492	212
1	1123	119.873553557547	213
1	1123	119.873553557547	214
1	1123	119.873553557547	215
1	1141	123.521331319527	216
1	1141	123.521331319527	217
1	1141	123.521331319527	218
1	1157	124.629856009074	219
1	1157	124.629856009074	220
1	1157	124.629856009074	221
1	1173	126.432308353806	222
1	1173	126.432308353806	223
1	1173	126.432308353806	224
1	1189	127.959593207913	225
1	1189	127.959593207913	226
1	1189	127.959593207913	227
1	1207	130.836045211253	228
1	1207	130.836045211253	229
1	1207	130.836045211253	230
1	1223	131.993617386018	231
1	1223	131.993617386018	232
1	1223	131.993617386018	233
1	1239	133.616367525743	234
1	1239	133.616367525743	235
1	1239	133.616367525743	236
1	1255	135.175377312567	237
1	1255	135.175377312567	238
1	1255	135.175377312567	239
1	1273	138.30793851701	240
1	1273	138.30793851701	241
1	1273	138.30793851701	242
1	1289	140.09368158353	243
1	1289	140.09368158353	244
1	1289	140.09368158353	245
1	1305	141.541950411256	246
1	1305	141.541950411256	247
1	1305	141.541950411256	248
1	1321	143.434867442474	249
1	1321	143.434867442474	250
1	1321	143.434867442474	251
1	1337	144.997757429474	252
1	1337	144.997757429474	253
1	1337	144.997757429474	254
1	1353	146.224188637384	255
1	1353	146.224188637384	256
1	1353	146.224188637384	257
1	1369	148.202040332035	258
1	1369	148.202040332035	259
1	1369	148.202040332035	260
1	1385	149.970223870815	261
1	1385	149.970223870815	262
1	1385	149.970223870815	263
1	1401	151.316874929599	264
1	1401	151.316874929599	265
1	1401	151.316874929599	266
1	1417	152.521194118832	267
1	1417	152.521194118832	268
1	1417	152.521194118832	269
1	1433	154.121677266949	270
1	1433	154.121677266949	271
1	1433	154.121677266949	272
1	1449	155.59354184663	273
1	1449	155.59354184663	274
1	1449	155.59354184663	275
1	1465	157.565997115435	276
1	1465	157.565997115435	277
1	1465	157.565997115435	278
1	1481	158.6893789957	279
1	1481	158.6893789957	280
1	1481	158.6893789957	281
1	1494	160.306342112714	282
1	1494	160.306342112714	283
1	1494	160.306342112714	284
1	1510	162.181186912548	285
1	1510	162.181186912548	286
1	1510	162.181186912548	287
1	1526	163.654395857332	288
1	1526	163.654395857332	289
1	1526	163.654395857332	290
1	1539	164.949973460709	291
1	1539	164.949973460709	292
1	1539	164.949973460709	293
1	1555	165.992485507264	294
1	1555	165.992485507264	295
1	1555	165.992485507264	296
1	1571	167.275804026099	297
1	1571	167.275804026099	298
1	1571	167.275804026099	299
1	1587	168.798010451052	300
1	1587	168.798010451052	301
1	1587	168.798010451052	302
1	1603	169.855612244367	303
1	1603	169.855612244367	304
1	1603	169.855612244367	305
1	1619	171.639609277024	306
1	1619	171.639609277024	307
1	1619	171.639609277024	308
1	1635	173.037523606516	309
1	1635	173.037523606516	310
1	1635	173.037523606516	311
1	1651	174.802655070753	312
1	1651	174.802655070753	313
1	1651	174.802655070753	314
1	1667	176.355017537564	315
1	1667	176.355017537564	316
1	1667	176.355017537564	317
1	1683	177.912925627906	318
1	1683	177.912925627906	319
1	1683	177.912925627906	320
1	1699	179.559600173728	321
1	1699	179.559600173728	322
1	1699	179.559600173728	323
1	1715	181.065974393413	324
1	1715	181.065974393413	325
1	1715	181.065974393413	326
1	1731	182.68103937124	327
1	1731	182.68103937124	328
1	1731	182.68103937124	329
1	1747	183.980367613188	330
1	1747	183.980367613188	331
1	1747	183.980367613188	332
1	1763	185.731222597706	333
1	1763	185.731222597706	334
1	1763	185.731222597706	335
1	1779	186.822842777305	336
1	1779	186.822842777305	337
1	1779	186.822842777305	338
1	1795	187.860562942768	339
1	1795	187.860562942768	340
1	1795	187.860562942768	341
1	1811	189.490468203083	342
1	1811	189.490468203083	343
1	1811	189.490468203083	344
1	1827	190.537626883951	345
1	1827	190.537626883951	346
1	1827	190.537626883951	347
1	1843	191.88026695552	348
1	1843	191.88026695552	349
1	1843	191.88026695552	350
1	1859	193.237745528207	351
1	1859	193.237745528207	352
1	1859	193.237745528207	353
1	1875	194.241305991769	354
1	1875	194.241305991769	355
1	1875	194.241305991769	356
1	1891	195.468948526355	357
1	1891	195.468948526355	358
1	1891	195.468948526355	359
1	1907	196.659522713649	360
1	1907	196.659522713649	361
1	1907	196.659522713649	362
1	1923	198.270260367631	363
1	1923	198.270260367631	364
1	1923	198.270260367631	365
1	1939	199.469381283317	366
1	1939	199.469381283317	367
1	1939	199.469381283317	368
1	1955	200.79963729912	369
1	1955	200.79963729912	370
1	1955	200.79963729912	371
1	1971	202.537820162423	372
1	1971	202.537820162423	373
1	1971	202.537820162423	374
1	1987	203.902456224422	375
1	1987	203.902456224422	376
1	1987	203.902456224422	377
1	2003	205.602509081985	378
1	2003	205.602509081985	379
1	2003	205.602509081985	380
1	2019	207.101044065113	381
1	2019	207.101044065113	382
1	2019	207.101044065113	383
1	2035	208.603097177171	384
1	2035	208.603097177171	385
1	2035	208.603097177171	386
1	2053	212.107657168022	387
1	2053	212.107657168022	388
1	2053	212.107657168022	389
1	2069	213.537549670893	390
1	2069	213.537549670893	391
1	2069	213.537549670893	392
1	2085	214.995838199139	393
1	2085	214.995838199139	394
1	2085	214.995838199139	395
1	2101	216.363203303671	396
1	2101	216.363203303671	397
1	2101	216.363203303671	398
1	2117	218.283128590856	399
1	2117	218.283128590856	400
1	2117	218.283128590856	401
1	2133	219.296381834245	402
1	2133	219.296381834245	403
1	2133	219.296381834245	404
1	2149	221.136127322964	405
1	2149	221.136127322964	406
1	2149	221.136127322964	407
1	2158	222.769846643438	408
1	2158	222.769846643438	409
1	2158	222.769846643438	410
1	2174	224.376763753638	411
1	2174	224.376763753638	412
1	2174	224.376763753638	413
1	2190	225.624364509108	414
1	2190	225.624364509108	415
1	2190	225.624364509108	416
1	2206	227.217765149126	417
1	2206	227.217765149126	418
1	2206	227.217765149126	419
1	2222	228.222417305384	420
1	2222	228.222417305384	421
1	2222	228.222417305384	422
1	2238	229.542213416059	423
1	2238	229.542213416059	424
1	2238	229.542213416059	425
1	2251	231.332650826729	426
1	2251	231.332650826729	427
1	2251	231.332650826729	428
1	2267	232.911934383275	429
1	2267	232.911934383275	430
1	2267	232.911934383275	431
1	2283	233.979503643722	432
1	2283	233.979503643722	433
1	2283	233.979503643722	434
1	2299	235.487511870852	435
1	2299	235.487511870852	436
1	2299	235.487511870852	437
1	2315	236.654643049858	438
1	2315	236.654643049858	439
1	2315	236.654643049858	440
1	2331	238.184249029853	441
1	2331	238.184249029853	442
1	2331	238.184249029853	443
2	7	0.137786054054	0
2	7	0.137786054054	1
2	23	2.127434468571	2
2	23	2.127434468571	3
2	42	4.063723189674	4
2	42	4.063723189674	5
2	56	5.518693634704	6
2	56	5.518693634704	7
2	72	7.377983572072	8
2	72	7.377983572072	9
2	87	8.780605784802	10
2	87	8.780605784802	11
2	103	10.468919354634	12
2	103	10.468919354634	13
2	119	11.588534913491	14
2	119	11.588534913491	15
2	138	13.199430381645	16
2	138	13.199430381645	17
2	155	14.9665049599	18
2	155	14.9665049599	19
2	167	16.841236730276	20
2	167	16.841236730276	21
2	190	18.581897255609	22
2	190	18.581897255609	23
2	199	20.023511174068	24
2	199	20.023511174068	25
2	215	21.805605654202	26
2	215	21.805605654202	27
2	231	23.572418941815	28
2	231	23.572418941815	29
2	252	27.256917727076	30
2	252	27.256917727076	31
2	270	28.779140311264	32
2	270	28.779140311264	33
2	283	30.333870086324	34
2	283	30.333870086324	35
2	300	32.080655881691	36
2	300	32.080655881691	37
2	319	33.732706297179	38
2	319	33.732706297179	39
2	332	34.871085581547	40
2	332	34.871085581547	41
2	348	36.838929076164	42
2	348	36.838929076164	43
2	363	38.364986194799	44
2	363	38.364986194799	45
2	379	40.13748279121	46
2	379	40.13748279121	47
2	396	42.078054812891	48
2	396	42.078054812891	49
2	412	43.257607786871	50
2	412	43.257607786871	51
2	440	45.858951366726	52
2	440	45.858951366726	53
2	456	47.796396851481	54
2	456	47.796396851481	55
2	479	49.776974427572	56
2	479	49.776974427572	57
2	489	51.030770218966	58
2	489	51.030770218966	59
2	502	54.389043214031	60
2	502	54.389043214031	61
2	518	56.027257314587	62
2	518	56.027257314587	63
2	531	57.595164298364	64
2	531	57.595164298364	65
2	546	59.34085871069	66
2	546	59.34085871069	67
2	562	60.767896709098	68
2	562	60.767896709098	69
2	578	62.096684957266	70
2	578	62.096684957266	71
2	601	63.6578411452	72
2	601	63.6578411452	73
2	614	64.982282118391	74
2	614	64.982282118391	75
2	627	66.668697942746	76
2	627	66.668697942746	77
2	643	68.583526059641	78
2	643	68.583526059641	79
2	659	69.820049380255	80
2	659	69.820049380255	81
2	674	70.956924848692	82
2	674	70.956924848692	83
2	697	74.591902635222	84
2	697	74.591902635222	85
2	712	76.236056967961	86
2	712	76.236056967961	87
2	731	77.532918539939	88
2	731	77.532918539939	89
2	744	78.625083390574	90
2	744	78.625083390574	91
2	757	79.772817119111	92
2	757	79.772817119111	93
2	773	81.489165469898	94
2	773	81.489165469898	95
2	796	82.812354160207	96
2	796	82.812354160207	97
2	808	84.084979467413	98
2	808	84.084979467413	99
2	830	87.032923430131	100
2	830	87.032923430131	101
2	859	89.795276882519	102
2	859	89.795276882519	103
2	875	90.828383202083	104
2	875	90.828383202083	105
2	884	92.241721066556	106
2	884	92.241721066556	107
2	894	93.389644196139	108
2	894	93.389644196139	109
2	910	94.651933326478	110
2	910	94.651933326478	111
2	926	96.35176570136	112
2	926	96.35176570136	113
2	941	97.82791004447	114
2	941	97.82791004447	115
2	958	99.63004637698	116
2	958	99.63004637698	117
2	973	100.942937978973	118
2	973	100.942937978973	119
2	996	102.247494959483	120
2	996	102.247494959483	121
2	1008	104.853052130027	122
2	1008	104.853052130027	123
2	1023	106.26773486055	124
2	1023	106.26773486055	125
2	1039	107.43215350148	126
2	1039	107.43215350148	127
2	1061	113.138966835775	128
2	1061	113.138966835775	129
2	1078	114.189318445661	130
2	1078	114.189318445661	131
2	1093	115.81690407477	132
2	1093	115.81690407477	133
2	1110	117.429413640103	134
2	1110	117.429413640103	135
2	1130	119.894715308988	136
2	1130	119.894715308988	137
2	1145	123.54180540403	138
2	1145	123.54180540403	139
2	1168	124.702544830281	140
2	1168	124.702544830281	141
2	1177	126.460862153281	142
2	1177	126.460862153281	143
2	1194	127.974326621427	144
2	1194	127.974326621427	145
2	1211	130.858469386128	146
2	1211	130.858469386128	147
2	1227	132.004321274209	148
2	1227	132.004321274209	149
2	1243	133.628459255103	150
2	1243	133.628459255103	151
2	1259	135.188879730666	152
2	1259	135.188879730666	153
2	1284	138.366099611536	154
2	1284	138.366099611536	155
2	1293	140.10447405921	156
2	1293	140.10447405921	157
2	1309	141.55390036044	158
2	1309	141.55390036044	159
2	1326	143.452876708107	160
2	1326	143.452876708107	161
2	1341	145.015942352486	162
2	1341	145.015942352486	163
2	1357	146.237217246452	164
2	1357	146.237217246452	165
2	1373	148.221539097112	166
2	1373	148.221539097112	167
2	1396	150.007075932984	168
2	1396	150.007075932984	169
2	1405	151.330792601165	170
2	1405	151.330792601165	171
2	1422	152.53749107046	172
2	1422	152.53749107046	173
2	1437	154.133091070739	174
2	1437	154.133091070739	175
2	1453	155.604243999941	176
2	1453	155.604243999941	177
2	1469	157.58376807754	178
2	1469	157.58376807754	179
2	1485	158.705161468999	180
2	1485	158.705161468999	181
2	1498	160.325876659645	182
2	1498	160.325876659645	183
2	1514	162.191891864313	184
2	1514	162.191891864313	185
2	1550	165.007632341233	186
2	1550	165.007632341233	187
2	1560	166.007709800757	188
2	1560	166.007709800757	189
2	1575	167.288707991358	190
2	1575	167.288707991358	191
2	1591	168.811510123041	192
2	1591	168.811510123041	193
2	1607	169.87152026641	194
2	1607	169.87152026641	195
2	1627	171.677493513956	196
2	1627	171.677493513956	197
2	1639	173.059187079778	198
2	1639	173.059187079778	199
2	1656	174.82264219625	200
2	1656	174.82264219625	201
2	1671	176.367050376187	202
2	1671	176.367050376187	203
2	1687	177.939036632998	204
2	1687	177.939036632998	205
2	1703	179.579637032165	206
2	1703	179.579637032165	207
2	1719	181.084313718423	208
2	1719	181.084313718423	209
2	1735	182.691708678166	210
2	1735	182.691708678166	211
2	1752	183.993717081491	212
2	1752	183.993717081491	213
2	1774	185.779003563157	214
2	1774	185.779003563157	215
2	1783	186.868635393314	216
2	1783	186.868635393314	217
2	1799	187.873380190412	218
2	1799	187.873380190412	219
2	1816	189.507739511725	220
2	1816	189.507739511725	221
2	1832	190.559952694501	222
2	1832	190.559952694501	223
2	1854	191.941324726962	224
2	1854	191.941324726962	225
2	1863	193.248006437302	226
2	1863	193.248006437302	227
2	1879	194.265839683052	228
2	1879	194.265839683052	229
2	1895	195.479117095103	230
2	1895	195.479117095103	231
2	1912	196.680072188111	232
2	1912	196.680072188111	233
2	1927	198.280665761958	234
2	1927	198.280665761958	235
2	1943	199.485298658844	236
2	1943	199.485298658844	237
2	1959	200.811178060837	238
2	1959	200.811178060837	239
2	1978	202.568544896049	240
2	1978	202.568544896049	241
2	1991	203.916191571699	242
2	1991	203.916191571699	243
2	2007	205.618848039822	244
2	2007	205.618848039822	245
2	2024	207.125645152477	246
2	2024	207.125645152477	247
2	2039	208.620272826474	248
2	2039	208.620272826474	249
2	2060	212.147976089479	250
2	2060	212.147976089479	251
2	2073	213.548891193671	252
2	2073	213.548891193671	253
2	2089	215.015355668536	254
2	2089	215.015355668536	255
2	2105	216.373874445608	256
2	2105	216.373874445608	257
2	2121	218.293684919539	258
2	2121	218.293684919539	259
2	2137	219.311857870267	260
2	2137	219.311857870267	261
2	2153	221.151181087278	262
2	2153	221.151181087278	263
2	2162	222.785216383324	264
2	2162	222.785216383324	265
2	2181	224.405552591238	266
2	2181	224.405552591238	267
2	2194	225.648240148005	268
2	2194	225.648240148005	269
2	2211	227.23827582985	270
2	2211	227.23827582985	271
2	2227	228.239880834259	272
2	2227	228.239880834259	273
2	2256	231.351515027626	274
2	2256	231.351515027626	275
2	2278	232.957367749581	276
2	2278	232.957367749581	277
2	2287	233.995459081105	278
2	2287	233.995459081105	279
2	2304	235.520956675289	280
2	2304	235.520956675289	281
2	2319	236.670223359629	282
2	2319	236.670223359629	283
2	2335	238.201004263099	284
2	2335	238.201004263099	285
3	8	0.139799085561	0
3	8	0.139799085561	1
3	24	2.136706021611	2
3	24	2.136706021611	3
3	39	4.04979924493	4
3	39	4.04979924493	5
3	55	5.517230760606	6
3	55	5.517230760606	7
3	71	7.370174878133	8
3	71	7.370174878133	9
3	90	8.795088489387	10
3	90	8.795088489387	11
3	110	10.498769982202	12
3	110	10.498769982202	13
3	122	11.599487013192	14
3	122	11.599487013192	15
3	135	13.177733348556	16
3	135	13.177733348556	17
3	151	14.942069567683	18
3	151	14.942069567683	19
3	168	16.842381505406	20
3	168	16.842381505406	21
3	183	18.54848333352	22
3	183	18.54848333352	23
3	200	20.029157336859	24
3	200	20.029157336859	25
3	219	21.820377376288	26
3	219	21.820377376288	27
3	232	23.572483624558	28
3	232	23.572483624558	29
3	251	27.256609650661	30
3	251	27.256609650661	31
3	267	28.763202481773	32
3	267	28.763202481773	33
3	284	30.334719303158	34
3	284	30.334719303158	35
3	299	32.080035278091	36
3	299	32.080035278091	37
3	315	33.706341466448	38
3	315	33.706341466448	39
3	331	34.870547145529	40
3	331	34.870547145529	41
3	347	36.835705540747	42
3	347	36.835705540747	43
3	370	38.388690038751	44
3	370	38.388690038751	45
3	382	40.16030418983	46
3	382	40.16030418983	47
3	395	42.07113385459	48
3	395	42.07113385459	49
3	411	43.254991671095	50
3	411	43.254991671095	51
3	427	44.231960049233	52
3	427	44.231960049233	53
3	447	45.907632946794	54
3	447	45.907632946794	55
3	457	47.798919093635	56
3	457	47.798919093635	57
3	472	49.738041043932	58
3	472	49.738041043932	59
3	488	51.024005273382	60
3	488	51.024005273382	61
3	509	54.412841291512	62
3	509	54.412841291512	63
3	519	56.02733612379	64
3	519	56.02733612379	65
3	530	57.592143026295	66
3	530	57.592143026295	67
3	547	59.34726453454	68
3	547	59.34726453454	69
3	565	60.77997392246	70
3	565	60.77997392246	71
3	579	62.097104572726	72
3	579	62.097104572726	73
3	594	63.620681179145	74
3	594	63.620681179145	75
3	610	64.966248058823	76
3	610	64.966248058823	77
3	626	66.665352697359	78
3	626	66.665352697359	79
3	642	68.57594951194	80
3	642	68.57594951194	81
3	658	69.81460710874	82
3	658	69.81460710874	83
3	675	70.961073791037	84
3	675	70.961073791037	85
3	696	74.584931235878	86
3	696	74.584931235878	87
3	713	76.243961408478	88
3	713	76.243961408478	89
3	728	77.50439019771	90
3	728	77.50439019771	91
3	758	79.782468992071	92
3	758	79.782468992071	93
3	774	81.496929307037	94
3	774	81.496929307037	95
3	789	82.772065453906	96
3	789	82.772065453906	97
3	805	84.072950400737	98
3	805	84.072950400737	99
3	823	86.987681867684	100
3	823	86.987681867684	101
3	839	88.457004609727	102
3	839	88.457004609727	103
3	852	89.718151489119	104
3	852	89.718151489119	105
3	868	90.781666351028	106
3	868	90.781666351028	107
3	893	93.380855563394	108
3	893	93.380855563394	109
3	909	94.651190611896	110
3	909	94.651190611896	111
3	925	96.350283930608	112
3	925	96.350283930608	113
3	945	97.847509895061	114
3	945	97.847509895061	115
3	957	99.622940523619	116
3	957	99.622940523619	117
3	974	100.946270320818	118
3	974	100.946270320818	119
3	989	102.195107847581	120
3	989	102.195107847581	121
3	1007	104.845631158412	122
3	1007	104.845631158412	123
3	1024	106.271440613891	124
3	1024	106.271440613891	125
3	1046	107.472481361428	126
3	1046	107.472481361428	127
3	1068	113.17415760476	128
3	1068	113.17415760476	129
3	1077	114.18509649578	130
3	1077	114.18509649578	131
3	1096	115.82724782424	132
3	1096	115.82724782424	133
3	1109	117.426999971576	134
3	1109	117.426999971576	135
3	1127	119.883680396199	136
3	1127	119.883680396199	137
3	1146	123.54907441965	138
3	1146	123.54907441965	139
3	1161	124.659223517375	140
3	1161	124.659223517375	141
3	1184	126.497767376629	142
3	1184	126.497767376629	143
3	1193	127.971130762748	144
3	1193	127.971130762748	145
3	1215	130.870974626951	146
3	1215	130.870974626951	147
3	1234	132.063378005303	148
3	1234	132.063378005303	149
3	1246	133.639435665591	150
3	1246	133.639435665591	151
3	1260	135.194468659091	152
3	1260	135.194468659091	153
3	1277	138.322965386488	154
3	1277	138.322965386488	155
3	1294	140.10599402196	156
3	1294	140.10599402196	157
3	1316	141.594431541132	158
3	1316	141.594431541132	159
3	1325	143.446491825801	160
3	1325	143.446491825801	161
3	1344	145.027435500641	162
3	1344	145.027435500641	163
3	1364	146.277539054625	164
3	1364	146.277539054625	165
3	1374	148.225928279671	166
3	1374	148.225928279671	167
3	1389	149.981510926378	168
3	1389	149.981510926378	169
3	1406	151.33639076943	170
3	1406	151.33639076943	171
3	1421	152.533697751193	172
3	1421	152.533697751193	173
3	1438	154.142355071822	174
3	1438	154.142355071822	175
3	1456	155.622050563655	176
3	1456	155.622050563655	177
3	1470	157.588061074111	178
3	1470	157.588061074111	179
3	1501	160.335971276036	180
3	1501	160.335971276036	181
3	1515	162.200571835922	182
3	1515	162.200571835922	183
3	1530	163.665836333998	184
3	1530	163.665836333998	185
3	1543	164.971872983565	186
3	1543	164.971872983565	187
3	1559	166.005248560884	188
3	1559	166.005248560884	189
3	1576	167.29546899703	190
3	1576	167.29546899703	191
3	1594	168.824527540521	192
3	1594	168.824527540521	193
3	1611	169.88846019195	194
3	1611	169.88846019195	195
3	1623	171.655000224256	196
3	1623	171.655000224256	197
3	1640	173.059540281998	198
3	1640	173.059540281998	199
3	1655	174.81324890703	200
3	1655	174.81324890703	201
3	1674	176.385838606358	202
3	1674	176.385838606358	203
3	1688	177.941538456067	204
3	1688	177.941538456067	205
3	1704	179.580735353326	206
3	1704	179.580735353326	207
3	1720	181.086166681089	208
3	1720	181.086166681089	209
3	1742	182.716902678411	210
3	1742	182.716902678411	211
3	1751	183.990859437487	212
3	1751	183.990859437487	213
3	1767	185.745383500687	214
3	1767	185.745383500687	215
3	1790	186.933845385368	216
3	1790	186.933845385368	217
3	1800	187.874947261454	218
3	1800	187.874947261454	219
3	1815	189.501069553619	220
3	1815	189.501069553619	221
3	1831	190.553638696078	222
3	1831	190.553638696078	223
3	1847	191.903245899456	224
3	1847	191.903245899456	225
3	1864	193.253160715842	226
3	1864	193.253160715842	227
3	1886	194.291803612641	228
3	1886	194.291803612641	229
3	1896	195.481393366364	230
3	1896	195.481393366364	231
3	1911	196.670730798744	232
3	1911	196.670730798744	233
3	1930	198.30530231282	234
3	1930	198.30530231282	235
3	1947	199.501944060287	236
3	1947	199.501944060287	237
3	1960	200.820767327579	238
3	1960	200.820767327579	239
3	1975	202.548610852928	240
3	1975	202.548610852928	241
3	1994	203.949109207369	242
3	1994	203.949109207369	243
3	2008	205.62689052214	244
3	2008	205.62689052214	245
3	2023	207.116673534613	246
3	2023	207.116673534613	247
3	2040	208.622388829202	248
3	2040	208.622388829202	249
3	2057	212.134973395551	250
3	2057	212.134973395551	251
3	2074	213.553957342722	252
3	2074	213.553957342722	253
3	2092	215.034643078596	254
3	2092	215.034643078596	255
3	2108	216.384730337096	256
3	2108	216.384730337096	257
3	2124	218.309982021578	258
3	2124	218.309982021578	259
3	2140	219.326992835119	260
3	2140	219.326992835119	261
3	2163	222.793475298026	262
3	2163	222.793475298026	263
3	2178	224.393144562434	264
3	2178	224.393144562434	265
3	2201	225.678534224546	266
3	2201	225.678534224546	267
3	2210	227.22974001203	268
3	2210	227.22974001203	269
3	2226	228.232988550595	270
3	2226	228.232988550595	271
3	2242	229.571548353406	272
3	2242	229.571548353406	273
3	2255	231.348714875973	274
3	2255	231.348714875973	275
3	2271	232.922681050013	276
3	2271	232.922681050013	277
3	2288	234.000665480987	278
3	2288	234.000665480987	279
3	2303	235.51270079889	280
3	2303	235.51270079889	281
3	2320	236.678914286301	282
3	2320	236.678914286301	283
3	2336	238.205923679161	284
3	2336	238.205923679161	285
4	13	0.154707857139	0
4	13	0.154707857139	1
4	13	0.154707857139	2
4	27	2.14004262707	3
4	27	2.14004262707	4
4	27	2.14004262707	5
4	45	4.076032458522	6
4	45	4.076032458522	7
4	45	4.076032458522	8
4	61	5.538333400915	9
4	61	5.538333400915	10
4	61	5.538333400915	11
4	75	7.385494329678	12
4	75	7.385494329678	13
4	75	7.385494329678	14
4	91	8.796940210381	15
4	91	8.796940210381	16
4	91	8.796940210381	17
4	106	10.482005642717	18
4	106	10.482005642717	19
4	106	10.482005642717	20
4	125	11.628479870593	21
4	125	11.628479870593	22
4	125	11.628479870593	23
4	139	13.209199891825	24
4	139	13.209199891825	25
4	139	13.209199891825	26
4	154	14.960532750869	27
4	154	14.960532750869	28
4	154	14.960532750869	29
4	173	16.865211834552	30
4	173	16.865211834552	31
4	173	16.865211834552	32
4	186	18.567120069836	33
4	186	18.567120069836	34
4	186	18.567120069836	35
4	203	20.033601662196	36
4	203	20.033601662196	37
4	203	20.033601662196	38
4	218	21.816332237456	39
4	218	21.816332237456	40
4	218	21.816332237456	41
4	237	23.58292455371	42
4	237	23.58292455371	43
4	237	23.58292455371	44
4	257	27.26987136914	45
4	257	27.26987136914	46
4	257	27.26987136914	47
4	271	28.785839412695	48
4	271	28.785839412695	49
4	271	28.785839412695	50
4	289	30.371546548041	51
4	289	30.371546548041	52
4	289	30.371546548041	53
4	305	32.094510887772	54
4	305	32.094510887772	55
4	305	32.094510887772	56
4	318	33.72984902283	57
4	318	33.72984902283	58
4	318	33.72984902283	59
4	337	34.897360586576	60
4	337	34.897360586576	61
4	337	34.897360586576	62
4	353	36.870527887306	63
4	353	36.870527887306	64
4	353	36.870527887306	65
4	366	38.37567472878	66
4	366	38.37567472878	67
4	366	38.37567472878	68
4	385	40.177701057742	69
4	385	40.177701057742	70
4	385	40.177701057742	71
4	399	42.086202377817	72
4	399	42.086202377817	73
4	399	42.086202377817	74
4	417	43.271006500333	75
4	417	43.271006500333	76
4	417	43.271006500333	77
4	430	44.24900541052	78
4	430	44.24900541052	79
4	430	44.24900541052	80
4	443	45.875944546732	81
4	443	45.875944546732	82
4	443	45.875944546732	83
4	462	47.812556495775	84
4	462	47.812556495775	85
4	462	47.812556495775	86
4	475	49.750505079162	87
4	475	49.750505079162	88
4	475	49.750505079162	89
4	505	54.401982935464	90
4	505	54.401982935464	91
4	505	54.401982935464	92
4	536	57.608137298666	93
4	536	57.608137298666	94
4	536	57.608137298666	95
4	552	59.362184566346	96
4	552	59.362184566346	97
4	552	59.362184566346	98
4	566	60.781046669901	99
4	566	60.781046669901	100
4	566	60.781046669901	101
4	584	62.121420222071	102
4	584	62.121420222071	103
4	584	62.121420222071	104
4	597	63.631135525538	105
4	597	63.631135525538	106
4	597	63.631135525538	107
4	613	64.978797496863	108
4	613	64.978797496863	109
4	613	64.978797496863	110
4	632	66.682275856031	111
4	632	66.682275856031	112
4	632	66.682275856031	113
4	646	68.587024999453	114
4	646	68.587024999453	115
4	646	68.587024999453	116
4	664	69.838531352645	117
4	664	69.838531352645	118
4	664	69.838531352645	119
4	680	70.974656293762	120
4	680	70.974656293762	121
4	680	70.974656293762	122
4	702	74.609638380499	123
4	702	74.609638380499	124
4	702	74.609638380499	125
4	718	76.261324006253	126
4	718	76.261324006253	127
4	718	76.261324006253	128
4	734	77.565406227961	129
4	734	77.565406227961	130
4	734	77.565406227961	131
4	747	78.660032754015	132
4	747	78.660032754015	133
4	747	78.660032754015	134
4	761	79.790925790878	135
4	761	79.790925790878	136
4	761	79.790925790878	137
4	779	81.513199301024	138
4	779	81.513199301024	139
4	779	81.513199301024	140
4	792	82.786862214469	141
4	792	82.786862214469	142
4	792	82.786862214469	143
4	809	84.087603948038	144
4	809	84.087603948038	145
4	809	84.087603948038	146
4	826	87.009615510286	147
4	826	87.009615510286	148
4	826	87.009615510286	149
4	842	88.467820907474	150
4	842	88.467820907474	151
4	842	88.467820907474	152
4	855	89.771535655368	153
4	855	89.771535655368	154
4	855	89.771535655368	155
4	871	90.81517215299	156
4	871	90.81517215299	157
4	871	90.81517215299	158
4	897	93.391665265903	159
4	897	93.391665265903	160
4	897	93.391665265903	161
4	915	94.744926656347	162
4	915	94.744926656347	163
4	915	94.744926656347	164
4	931	96.369092651513	165
4	931	96.369092651513	166
4	931	96.369092651513	167
4	944	97.83836877289	168
4	944	97.83836877289	169
4	944	97.83836877289	170
4	963	99.654737161742	171
4	963	99.654737161742	172
4	963	99.654737161742	173
4	977	100.955225610169	174
4	977	100.955225610169	175
4	977	100.955225610169	176
4	992	102.232733182698	177
4	992	102.232733182698	178
4	992	102.232733182698	179
4	1013	104.886233013949	180
4	1013	104.886233013949	181
4	1013	104.886233013949	182
4	1027	106.278265084591	183
4	1027	106.278265084591	184
4	1027	106.278265084591	185
4	1042	107.443849440418	186
4	1042	107.443849440418	187
4	1042	107.443849440418	188
4	1064	113.1543418197	189
4	1064	113.1543418197	190
4	1064	113.1543418197	191
4	1081	114.197445272507	192
4	1081	114.197445272507	193
4	1081	114.197445272507	194
4	1097	115.82871658618	195
4	1097	115.82871658618	196
4	1097	115.82871658618	197
4	1115	117.44870257813	198
4	1115	117.44870257813	199
4	1115	117.44870257813	200
4	1133	119.907688812124	201
4	1133	119.907688812124	202
4	1133	119.907688812124	203
4	1151	123.568564132753	204
4	1151	123.568564132753	205
4	1151	123.568564132753	206
4	1164	124.682979863657	207
4	1164	124.682979863657	208
4	1164	124.682979863657	209
4	1180	126.474553127492	210
4	1180	126.474553127492	211
4	1180	126.474553127492	212
4	1199	128.009671458064	213
4	1199	128.009671458064	214
4	1199	128.009671458064	215
4	1214	130.869189551809	216
4	1214	130.869189551809	217
4	1214	130.869189551809	218
4	1230	132.051636451622	219
4	1230	132.051636451622	220
4	1230	132.051636451622	221
4	1247	133.64441233922	222
4	1247	133.64441233922	223
4	1247	133.64441233922	224
4	1263	135.20334467468	225
4	1263	135.20334467468	226
4	1263	135.20334467468	227
4	1280	138.333800329266	228
4	1280	138.333800329266	229
4	1280	138.333800329266	230
4	1299	140.122880193467	231
4	1299	140.122880193467	232
4	1299	140.122880193467	233
4	1312	141.575501935145	234
4	1312	141.575501935145	235
4	1312	141.575501935145	236
4	1331	143.464423522146	237
4	1331	143.464423522146	238
4	1331	143.464423522146	239
4	1345	145.036415874495	240
4	1345	145.036415874495	241
4	1345	145.036415874495	242
4	1360	146.260268109738	243
4	1360	146.260268109738	244
4	1360	146.260268109738	245
4	1377	148.234762990218	246
4	1377	148.234762990218	247
4	1377	148.234762990218	248
4	1392	149.995107674078	249
4	1392	149.995107674078	250
4	1392	149.995107674078	251
4	1411	151.347033160549	252
4	1411	151.347033160549	253
4	1411	151.347033160549	254
4	1427	152.548889486577	255
4	1427	152.548889486577	256
4	1427	152.548889486577	257
4	1441	154.14449765416	258
4	1441	154.14449765416	259
4	1441	154.14449765416	260
4	1457	155.630999655014	261
4	1457	155.630999655014	262
4	1457	155.630999655014	263
4	1475	157.61321187879	264
4	1475	157.61321187879	265
4	1475	157.61321187879	266
4	1488	158.71525126199	267
4	1488	158.71525126199	268
4	1488	158.71525126199	269
4	1502	160.337319274102	270
4	1502	160.337319274102	271
4	1502	160.337319274102	272
4	1518	162.208938841036	273
4	1518	162.208938841036	274
4	1518	162.208938841036	275
4	1533	163.677499399836	276
4	1533	163.677499399836	277
4	1533	163.677499399836	278
4	1546	164.987089875658	279
4	1546	164.987089875658	280
4	1546	164.987089875658	281
4	1563	166.016266385913	282
4	1563	166.016266385913	283
4	1563	166.016266385913	284
4	1581	167.311799750504	285
4	1581	167.311799750504	286
4	1581	167.311799750504	287
4	1597	168.841246040767	288
4	1597	168.841246040767	289
4	1597	168.841246040767	290
4	1610	169.888006740801	291
4	1610	169.888006740801	292
4	1610	169.888006740801	293
4	1626	171.672799736635	294
4	1626	171.672799736635	295
4	1626	171.672799736635	296
4	1643	173.069522242213	297
4	1643	173.069522242213	298
4	1643	173.069522242213	299
4	1659	174.828169214409	300
4	1659	174.828169214409	301
4	1659	174.828169214409	302
4	1677	176.405617899572	303
4	1677	176.405617899572	304
4	1677	176.405617899572	305
4	1693	177.955939798049	306
4	1693	177.955939798049	307
4	1693	177.955939798049	308
4	1707	179.590259313238	309
4	1707	179.590259313238	310
4	1707	179.590259313238	311
4	1725	181.119838306275	312
4	1725	181.119838306275	313
4	1725	181.119838306275	314
4	1738	182.702356363167	315
4	1738	182.702356363167	316
4	1738	182.702356363167	317
4	1757	184.006266052015	318
4	1757	184.006266052015	319
4	1757	184.006266052015	320
4	1770	185.762075872593	321
4	1770	185.762075872593	322
4	1770	185.762075872593	323
4	1786	186.884980196375	324
4	1786	186.884980196375	325
4	1786	186.884980196375	326
4	1805	187.890535054719	327
4	1805	187.890535054719	328
4	1805	187.890535054719	329
4	1821	189.517762506476	330
4	1821	189.517762506476	331
4	1821	189.517762506476	332
4	1835	190.566077620064	333
4	1835	190.566077620064	334
4	1835	190.566077620064	335
4	1850	191.919203905347	336
4	1850	191.919203905347	337
4	1850	191.919203905347	338
4	1867	193.263101268571	339
4	1867	193.263101268571	340
4	1867	193.263101268571	341
4	1882	194.276708371108	342
4	1882	194.276708371108	343
4	1882	194.276708371108	344
4	1901	195.492255952964	345
4	1901	195.492255952964	346
4	1901	195.492255952964	347
4	1917	196.700575714507	348
4	1917	196.700575714507	349
4	1917	196.700575714507	350
4	1933	198.318867717298	351
4	1933	198.318867717298	352
4	1933	198.318867717298	353
4	1946	199.49641618143	354
4	1946	199.49641618143	355
4	1946	199.49641618143	356
4	1965	200.831821359594	357
4	1965	200.831821359594	358
4	1965	200.831821359594	359
4	1979	202.571485549839	360
4	1979	202.571485549839	361
4	1979	202.571485549839	362
4	1995	203.954507135814	363
4	1995	203.954507135814	364
4	1995	203.954507135814	365
4	2013	205.639766393667	366
4	2013	205.639766393667	367
4	2013	205.639766393667	368
4	2027	207.131022126663	369
4	2027	207.131022126663	370
4	2027	207.131022126663	371
4	2043	208.632034512385	372
4	2043	208.632034512385	373
4	2043	208.632034512385	374
4	2063	212.165212581564	375
4	2063	212.165212581564	376
4	2063	212.165212581564	377
4	2079	213.566373193717	378
4	2079	213.566373193717	379
4	2079	213.566373193717	380
4	2093	215.037584545303	381
4	2093	215.037584545303	382
4	2093	215.037584545303	383
4	2111	216.395191501549	384
4	2111	216.395191501549	385
4	2111	216.395191501549	386
4	2125	218.31914537312	387
4	2125	218.31914537312	388
4	2125	218.31914537312	389
4	2143	219.337818283119	390
4	2143	219.337818283119	391
4	2143	219.337818283119	392
4	2166	222.796439224029	393
4	2166	222.796439224029	394
4	2166	222.796439224029	395
4	2184	224.436267389647	396
4	2184	224.436267389647	397
4	2184	224.436267389647	398
4	2197	225.665471330146	399
4	2197	225.665471330146	400
4	2197	225.665471330146	401
4	2216	227.249020408134	402
4	2216	227.249020408134	403
4	2216	227.249020408134	404
4	2232	228.251900231299	405
4	2232	228.251900231299	406
4	2232	228.251900231299	407
4	2245	229.587312540986	408
4	2245	229.587312540986	409
4	2245	229.587312540986	410
4	2261	231.365354935636	411
4	2261	231.365354935636	412
4	2261	231.365354935636	413
4	2274	232.938737324597	414
4	2274	232.938737324597	415
4	2274	232.938737324597	416
4	2291	234.006863746099	417
4	2291	234.006863746099	418
4	2291	234.006863746099	419
4	2309	235.538738017428	420
4	2309	235.538738017428	421
4	2309	235.538738017428	422
4	2325	236.720576331857	423
4	2325	236.720576331857	424
4	2325	236.720576331857	425
4	2341	238.219485104842	426
4	2341	238.219485104842	427
4	2341	238.219485104842	428
5	16	0.164707857139	0
5	32	2.15004262707	1
5	48	4.086032458522	2
5	64	5.548333400915	3
5	80	7.395494329678	4
5	96	8.806940210381	5
5	144	13.219199891825	6
5	158	14.970532750869	7
5	176	16.875211834552	8
5	189	18.577120069836	9
5	208	20.043601662196	10
5	222	21.826332237456	11
5	260	27.27987136914	12
5	276	28.795839412695	13
5	292	30.381546548041	14
5	308	32.104510887772	15
5	322	33.73984902283	16
5	340	34.907360586576	17
5	369	38.38567472878	18
5	388	40.187701057742	19
5	404	42.096202377817	20
5	420	43.281006500333	21
5	433	44.25900541052	22
5	446	45.885944546732	23
5	465	47.822556495775	24
5	478	49.760505079162	25
5	508	54.411982935464	26
5	571	60.791046669901	27
5	587	62.131420222071	28
5	600	63.641135525538	29
5	617	64.988797496863	30
5	635	66.692275856031	31
5	651	68.597024999453	32
5	667	69.848531352645	33
5	683	70.984656293762	34
5	705	74.619638380499	35
5	721	76.271324006253	36
5	737	77.575406227961	37
5	750	78.670032754015	38
5	766	79.800925790878	39
5	782	81.523199301024	40
5	795	82.796862214469	41
5	814	84.097603948038	42
5	829	87.019615510286	43
5	845	88.477820907474	44
5	858	89.781535655368	45
5	874	90.82517215299	46
5	902	93.401665265903	47
5	918	94.754926656347	48
5	934	96.379092651513	49
5	948	97.84836877289	50
5	966	99.664737161742	51
5	982	100.965225610169	52
5	995	102.242733182698	53
5	1016	104.896233013949	54
5	1032	106.288265084591	55
5	1045	107.453849440418	56
5	1067	113.1643418197	57
5	1086	114.207445272507	58
5	1102	115.83871658618	59
5	1118	117.45870257813	60
5	1136	119.917688812124	61
5	1154	123.578564132753	62
5	1167	124.692979863657	63
5	1183	126.484553127492	64
5	1202	128.019671458064	65
5	1218	130.879189551809	66
5	1233	132.061636451622	67
5	1252	133.65441233922	68
5	1268	135.21334467468	69
5	1283	138.343800329266	70
5	1302	140.132880193467	71
5	1315	141.585501935145	72
5	1334	143.474423522146	73
5	1350	145.046415874495	74
5	1363	146.270268109738	75
5	1382	148.244762990218	76
5	1395	150.005107674078	77
5	1414	151.357033160549	78
5	1430	152.558889486577	79
5	1446	154.15449765416	80
5	1462	155.640999655014	81
5	1507	160.347319274102	82
5	1523	162.218938841036	83
5	1536	163.687499399836	84
5	1549	164.997089875658	85
5	1568	166.026266385913	86
5	1584	167.321799750504	87
5	1600	168.851246040767	88
5	1614	169.898006740801	89
5	1630	171.682799736635	90
5	1648	173.079522242213	91
5	1664	174.838169214409	92
5	1680	176.415617899572	93
5	1696	177.965939798049	94
5	1712	179.600259313238	95
5	1728	181.129838306275	96
5	1741	182.712356363167	97
5	1760	184.016266052015	98
5	1789	186.894980196375	99
5	1808	187.900535054719	100
5	1824	189.527762506476	101
5	1840	190.576077620064	102
5	1853	191.929203905347	103
5	1872	193.273101268571	104
5	1885	194.286708371108	105
5	1920	196.710575714507	106
5	1936	198.328867717298	107
5	1950	199.50641618143	108
5	1968	200.841821359594	109
5	1984	202.581485549839	110
5	2000	203.964507135814	111
5	2032	207.141022126663	112
5	2048	208.642034512385	113
5	2066	212.175212581564	114
5	2082	213.576373193717	115
5	2098	215.047584545303	116
5	2114	216.405191501549	117
5	2130	218.32914537312	118
5	2146	219.347818283119	119
5	2171	222.806439224029	120
5	2187	224.446267389647	121
5	2200	225.675471330146	122
5	2219	227.259020408134	123
5	2235	228.261900231299	124
5	2248	229.597312540986	125
5	2264	231.375354935636	126
5	2277	232.948737324597	127
5	2296	234.016863746099	128
5	2312	235.548738017428	129
5	2328	236.730576331857	130
5	2344	238.229485104842	131

