version 2
run General-4-20231008-05:33:00-14160
attr configname General
attr datetime 20231008-05:33:00
attr experiment General
attr inifile omnetpp.ini
attr iterationvars ""
attr iterationvarsf ""
attr measurement ""
attr network Reliability
attr processid 14160
attr repetition 4
attr replication #4
attr resultdir results
attr runnumber 4
attr seedset 4
param Reliability.node[*].transmissionTime "uniform(1s, 2s)"
param Reliability.node[*].delayTime "uniform(0.01s, 0.2s)"
param Reliability.node[*].processingTime exponential(0.01s)
param Reliability.node[*].lossProbability 0.1

vector 0 Reliability.node[0] txVector ETV
vector 1 Reliability.node[1] txVector ETV
vector 2 Reliability.node[3] txVector ETV
vector 3 Reliability.node[2] txVector ETV
vector 4 Reliability.node[4] txVector ETV
vector 5 Reliability.node[5] rxVector ETV
0	1	0.193735669288	0
0	17	2.094357123985	1
0	33	3.997535650306	2
0	49	5.610060993502	3
0	51	7.051409526881	4
0	67	8.117119065639	5
0	83	9.152877253866	6
0	99	10.375909774484	7
0	115	11.42331526956	8
0	131	12.738988757519	9
0	140	14.437969783474	10
0	156	16.170563235566	11
0	172	17.534213585233	12
0	188	19.021951220849	13
0	204	20.372236434988	14
0	206	21.791270475521	15
0	222	23.693692334381	16
0	238	24.75257242556	17
0	250	26.69515828105	18
0	266	27.735249402619	19
0	275	29.007720863831	20
0	291	30.939135131345	21
0	307	32.837226909038	22
0	309	33.956803596963	23
0	325	35.183784616331	24
0	341	36.448045125615	25
0	357	37.899665818002	26
0	373	38.919608177768	27
0	389	40.297453193843	28
0	405	41.492684351897	29
0	421	42.763148425996	30
0	437	43.788550127448	31
0	453	44.992861501092	32
0	469	46.820969556143	33
0	485	48.234010599471	34
0	501	49.39917237443	35
0	503	51.031462913762	36
0	519	52.566483080304	37
0	535	54.455493573016	38
0	551	56.07606282333	39
0	567	57.957464418524	40
0	583	59.798518722096	41
0	599	61.760121906559	42
0	615	63.419157433706	43
0	631	64.420513305031	44
0	647	66.331269600578	45
0	663	67.431747038067	46
0	679	68.943243440623	47
0	681	70.498283708152	48
0	697	71.838649870046	49
0	699	73.709599919068	50
0	715	75.675129228887	51
0	731	77.4281947733	52
0	747	78.708784590159	53
0	763	80.413049719911	54
0	779	82.29408695587	55
0	795	83.617807969368	56
0	811	85.452653933932	57
0	827	86.550689779372	58
0	843	87.78238930801	59
0	859	89.64110817845	60
0	868	90.826374458298	61
0	884	92.058748760177	62
0	900	93.187732544644	63
0	902	94.95297594104	64
0	918	96.128989423309	65
0	934	97.159946327014	66
0	950	98.590492835883	67
0	966	100.072590684434	68
0	982	101.908647579988	69
0	998	103.06401921777	70
0	1014	104.825204772558	71
0	1030	106.609492259948	72
0	1046	108.193942939546	73
0	1062	109.212513838345	74
0	1078	110.281611137008	75
0	1080	111.457706324206	76
0	1096	112.501288235103	77
0	1112	114.419029581043	78
0	1128	115.496939054838	79
0	1130	117.487606871555	80
0	1146	119.407257086512	81
0	1162	120.519335899649	82
0	1168	122.364657273896	83
0	1170	123.404855120609	84
0	1186	124.482414288827	85
0	1202	126.157242314107	86
0	1218	127.844205840872	87
0	1224	129.167424635877	88
0	1240	130.668140719094	89
0	1242	131.737736035985	90
0	1244	133.208683411273	91
0	1260	134.754006872334	92
0	1276	136.108048588651	93
0	1278	137.304094518916	94
0	1294	138.327142931669	95
0	1310	140.036620891335	96
0	1326	141.539789710109	97
0	1342	142.845196327575	98
0	1358	144.18831351647	99
0	1374	145.780387908601	100
0	1390	147.458256362852	101
0	1406	149.241637293397	102
0	1422	150.661540415286	103
0	1438	151.937451732493	104
0	1454	153.147591986842	105
0	1470	154.684907122897	106
0	1486	156.349177182335	107
0	1502	158.325175969777	108
0	1518	159.698068602159	109
0	1534	160.813237362457	110
0	1550	162.500012325272	111
0	1566	163.554720117627	112
0	1582	165.437339405213	113
0	1598	166.737427609889	114
0	1607	168.382545417557	115
0	1609	169.547445830107	116
0	1625	171.116491421974	117
0	1641	172.321869703159	118
0	1657	174.083270306848	119
0	1673	175.325693855677	120
0	1689	177.171100529293	121
0	1705	178.575401346581	122
0	1721	179.602184683466	123
0	1723	181.595229023052	124
0	1739	183.254859262295	125
0	1755	184.348702625055	126
0	1771	185.614312906899	127
0	1773	187.49498451842	128
0	1789	189.251853284109	129
0	1805	190.93472748544	130
0	1821	192.648863806305	131
0	1837	194.286146300295	132
0	1853	195.994894660692	133
0	1855	197.47597581163	134
0	1871	198.892927317796	135
0	1887	199.96627264834	136
0	1903	201.091577015035	137
0	1919	202.719259065027	138
0	1935	204.205373332054	139
0	1951	205.845562161329	140
0	1967	207.02219902576	141
0	1983	208.945925879675	142
0	1999	210.556645142763	143
0	2015	211.939373147824	144
0	2017	213.479274737799	145
0	2033	215.361351863631	146
0	2049	216.732853241182	147
0	2065	218.092272121376	148
0	2081	219.801987174815	149
0	2097	221.541742152451	150
0	2113	222.963464436038	151
0	2129	224.910779544069	152
0	2138	226.882373066536	153
0	2154	228.598584841854	154
0	2170	230.546136209193	155
0	2186	231.608550789451	156
0	2202	232.699411745567	157
0	2218	234.550054452766	158
0	2234	236.043012698798	159
0	2250	237.822966788581	160
0	2266	239.793230913731	161
1	3	0.205631491707	0
1	3	0.205631491707	1
1	3	0.205631491707	2
1	19	2.114380052882	3
1	19	2.114380052882	4
1	19	2.114380052882	5
1	35	4.010634569706	6
1	35	4.010634569706	7
1	35	4.010634569706	8
1	53	7.063343690472	9
1	53	7.063343690472	10
1	53	7.063343690472	11
1	69	8.129716656959	12
1	69	8.129716656959	13
1	69	8.129716656959	14
1	85	9.164370972416	15
1	85	9.164370972416	16
1	85	9.164370972416	17
1	101	10.412417968478	18
1	101	10.412417968478	19
1	101	10.412417968478	20
1	117	11.454211972398	21
1	117	11.454211972398	22
1	117	11.454211972398	23
1	133	12.760060542486	24
1	133	12.760060542486	25
1	133	12.760060542486	26
1	142	14.470474577623	27
1	142	14.470474577623	28
1	142	14.470474577623	29
1	158	16.195162990813	30
1	158	16.195162990813	31
1	158	16.195162990813	32
1	174	17.56082850138	33
1	174	17.56082850138	34
1	174	17.56082850138	35
1	190	19.03404641066	36
1	190	19.03404641066	37
1	190	19.03404641066	38
1	208	21.84020065463	39
1	208	21.84020065463	40
1	208	21.84020065463	41
1	224	23.713155242537	42
1	224	23.713155242537	43
1	224	23.713155242537	44
1	240	24.768836467907	45
1	240	24.768836467907	46
1	240	24.768836467907	47
1	252	26.705319282963	48
1	252	26.705319282963	49
1	252	26.705319282963	50
1	268	27.775140732318	51
1	268	27.775140732318	52
1	268	27.775140732318	53
1	277	29.045193011109	54
1	277	29.045193011109	55
1	277	29.045193011109	56
1	293	30.950633850806	57
1	293	30.950633850806	58
1	293	30.950633850806	59
1	311	33.981674544376	60
1	311	33.981674544376	61
1	311	33.981674544376	62
1	327	35.199272763689	63
1	327	35.199272763689	64
1	327	35.199272763689	65
1	343	36.464669445861	66
1	343	36.464669445861	67
1	343	36.464669445861	68
1	359	37.910750529717	69
1	359	37.910750529717	70
1	359	37.910750529717	71
1	375	38.934578523656	72
1	375	38.934578523656	73
1	375	38.934578523656	74
1	391	40.312247016799	75
1	391	40.312247016799	76
1	391	40.312247016799	77
1	407	41.508899126332	78
1	407	41.508899126332	79
1	407	41.508899126332	80
1	423	42.774614362928	81
1	423	42.774614362928	82
1	423	42.774614362928	83
1	439	43.802015404329	84
1	439	43.802015404329	85
1	439	43.802015404329	86
1	455	45.007788908071	87
1	455	45.007788908071	88
1	455	45.007788908071	89
1	471	46.831615655041	90
1	471	46.831615655041	91
1	471	46.831615655041	92
1	487	48.247447338481	93
1	487	48.247447338481	94
1	487	48.247447338481	95
1	505	51.044950592097	96
1	505	51.044950592097	97
1	505	51.044950592097	98
1	521	52.581704572349	99
1	521	52.581704572349	100
1	521	52.581704572349	101
1	537	54.466208204726	102
1	537	54.466208204726	103
1	537	54.466208204726	104
1	553	56.117706641054	105
1	553	56.117706641054	106
1	553	56.117706641054	107
1	569	57.986184979076	108
1	569	57.986184979076	109
1	569	57.986184979076	110
1	585	59.813287453231	111
1	585	59.813287453231	112
1	585	59.813287453231	113
1	601	61.773302556727	114
1	601	61.773302556727	115
1	601	61.773302556727	116
1	617	63.436910732987	117
1	617	63.436910732987	118
1	617	63.436910732987	119
1	633	64.447620375995	120
1	633	64.447620375995	121
1	633	64.447620375995	122
1	649	66.354946258461	123
1	649	66.354946258461	124
1	649	66.354946258461	125
1	665	67.45543426382	126
1	665	67.45543426382	127
1	665	67.45543426382	128
1	683	70.509094411883	129
1	683	70.509094411883	130
1	683	70.509094411883	131
1	701	73.726949233725	132
1	701	73.726949233725	133
1	701	73.726949233725	134
1	717	75.694280448528	135
1	717	75.694280448528	136
1	717	75.694280448528	137
1	733	77.444189417281	138
1	733	77.444189417281	139
1	733	77.444189417281	140
1	749	78.744438817365	141
1	749	78.744438817365	142
1	749	78.744438817365	143
1	765	80.426827007992	144
1	765	80.426827007992	145
1	765	80.426827007992	146
1	781	82.304653474261	147
1	781	82.304653474261	148
1	781	82.304653474261	149
1	797	83.629402679841	150
1	797	83.629402679841	151
1	797	83.629402679841	152
1	813	85.473437862278	153
1	813	85.473437862278	154
1	813	85.473437862278	155
1	829	86.582731289979	156
1	829	86.582731289979	157
1	829	86.582731289979	158
1	845	87.793462549269	159
1	845	87.793462549269	160
1	845	87.793462549269	161
1	861	89.651580918996	162
1	861	89.651580918996	163
1	861	89.651580918996	164
1	870	90.854916251838	165
1	870	90.854916251838	166
1	870	90.854916251838	167
1	886	92.075578149167	168
1	886	92.075578149167	169
1	886	92.075578149167	170
1	904	94.974525508857	171
1	904	94.974525508857	172
1	904	94.974525508857	173
1	920	96.149915853687	174
1	920	96.149915853687	175
1	920	96.149915853687	176
1	936	97.174843589533	177
1	936	97.174843589533	178
1	936	97.174843589533	179
1	952	98.623875756954	180
1	952	98.623875756954	181
1	952	98.623875756954	182
1	968	100.10538167382	183
1	968	100.10538167382	184
1	968	100.10538167382	185
1	984	101.940762037261	186
1	984	101.940762037261	187
1	984	101.940762037261	188
1	1000	103.09519010645	189
1	1000	103.09519010645	190
1	1000	103.09519010645	191
1	1016	104.857553946367	192
1	1016	104.857553946367	193
1	1016	104.857553946367	194
1	1032	106.620163271108	195
1	1032	106.620163271108	196
1	1032	106.620163271108	197
1	1048	108.230325524671	198
1	1048	108.230325524671	199
1	1048	108.230325524671	200
1	1064	109.240513925618	201
1	1064	109.240513925618	202
1	1064	109.240513925618	203
1	1082	111.46771539507	204
1	1082	111.46771539507	205
1	1082	111.46771539507	206
1	1098	112.52007727738	207
1	1098	112.52007727738	208
1	1098	112.52007727738	209
1	1114	114.439646702633	210
1	1114	114.439646702633	211
1	1114	114.439646702633	212
1	1132	117.507500686839	213
1	1132	117.507500686839	214
1	1132	117.507500686839	215
1	1148	119.430000852502	216
1	1148	119.430000852502	217
1	1148	119.430000852502	218
1	1164	120.558667142531	219
1	1164	120.558667142531	220
1	1164	120.558667142531	221
1	1172	123.453020511307	222
1	1172	123.453020511307	223
1	1172	123.453020511307	224
1	1188	124.494117104199	225
1	1188	124.494117104199	226
1	1188	124.494117104199	227
1	1204	126.17857691429	228
1	1204	126.17857691429	229
1	1204	126.17857691429	230
1	1220	127.854939486285	231
1	1220	127.854939486285	232
1	1220	127.854939486285	233
1	1226	129.208458115612	234
1	1226	129.208458115612	235
1	1226	129.208458115612	236
1	1246	133.238560946951	237
1	1246	133.238560946951	238
1	1246	133.238560946951	239
1	1262	134.787834276288	240
1	1262	134.787834276288	241
1	1262	134.787834276288	242
1	1280	137.324188661902	243
1	1280	137.324188661902	244
1	1280	137.324188661902	245
1	1296	138.337615270974	246
1	1296	138.337615270974	247
1	1296	138.337615270974	248
1	1312	140.066582403696	249
1	1312	140.066582403696	250
1	1312	140.066582403696	251
1	1328	141.550291050562	252
1	1328	141.550291050562	253
1	1328	141.550291050562	254
1	1344	142.860287170052	255
1	1344	142.860287170052	256
1	1344	142.860287170052	257
1	1360	144.210535270242	258
1	1360	144.210535270242	259
1	1360	144.210535270242	260
1	1376	145.816767939306	261
1	1376	145.816767939306	262
1	1376	145.816767939306	263
1	1392	147.468919540795	264
1	1392	147.468919540795	265
1	1392	147.468919540795	266
1	1408	149.253281184169	267
1	1408	149.253281184169	268
1	1408	149.253281184169	269
1	1424	150.681379335336	270
1	1424	150.681379335336	271
1	1424	150.681379335336	272
1	1440	151.961760221796	273
1	1440	151.961760221796	274
1	1440	151.961760221796	275
1	1456	153.165210761245	276
1	1456	153.165210761245	277
1	1456	153.165210761245	278
1	1472	154.699442590446	279
1	1472	154.699442590446	280
1	1472	154.699442590446	281
1	1488	156.37809003546	282
1	1488	156.37809003546	283
1	1488	156.37809003546	284
1	1504	158.337112717882	285
1	1504	158.337112717882	286
1	1504	158.337112717882	287
1	1520	159.715670552788	288
1	1520	159.715670552788	289
1	1520	159.715670552788	290
1	1536	160.827217858162	291
1	1536	160.827217858162	292
1	1536	160.827217858162	293
1	1552	162.512343156191	294
1	1552	162.512343156191	295
1	1552	162.512343156191	296
1	1568	163.594979412205	297
1	1568	163.594979412205	298
1	1568	163.594979412205	299
1	1584	165.480220202326	300
1	1584	165.480220202326	301
1	1584	165.480220202326	302
1	1600	166.75311734655	303
1	1600	166.75311734655	304
1	1600	166.75311734655	305
1	1611	169.576031942382	306
1	1611	169.576031942382	307
1	1611	169.576031942382	308
1	1627	171.139172316408	309
1	1627	171.139172316408	310
1	1627	171.139172316408	311
1	1643	172.343885500707	312
1	1643	172.343885500707	313
1	1643	172.343885500707	314
1	1659	174.103865499957	315
1	1659	174.103865499957	316
1	1659	174.103865499957	317
1	1675	175.358821025125	318
1	1675	175.358821025125	319
1	1675	175.358821025125	320
1	1691	177.188385281757	321
1	1691	177.188385281757	322
1	1691	177.188385281757	323
1	1707	178.61905802087	324
1	1707	178.61905802087	325
1	1707	178.61905802087	326
1	1725	181.608474847755	327
1	1725	181.608474847755	328
1	1725	181.608474847755	329
1	1741	183.27737335064	330
1	1741	183.27737335064	331
1	1741	183.27737335064	332
1	1757	184.369481389541	333
1	1757	184.369481389541	334
1	1757	184.369481389541	335
1	1775	187.510777303832	336
1	1775	187.510777303832	337
1	1775	187.510777303832	338
1	1791	189.26499256919	339
1	1791	189.26499256919	340
1	1791	189.26499256919	341
1	1807	190.949789891508	342
1	1807	190.949789891508	343
1	1807	190.949789891508	344
1	1823	192.671276730225	345
1	1823	192.671276730225	346
1	1823	192.671276730225	347
1	1839	194.304721630034	348
1	1839	194.304721630034	349
1	1839	194.304721630034	350
1	1857	197.489249489408	351
1	1857	197.489249489408	352
1	1857	197.489249489408	353
1	1873	198.905773773655	354
1	1873	198.905773773655	355
1	1873	198.905773773655	356
1	1889	199.987405626835	357
1	1889	199.987405626835	358
1	1889	199.987405626835	359
1	1905	201.109370597041	360
1	1905	201.109370597041	361
1	1905	201.109370597041	362
1	1921	202.73713369447	363
1	1921	202.73713369447	364
1	1921	202.73713369447	365
1	1937	204.219891647121	366
1	1937	204.219891647121	367
1	1937	204.219891647121	368
1	1953	205.85569020599	369
1	1953	205.85569020599	370
1	1953	205.85569020599	371
1	1969	207.038372656629	372
1	1969	207.038372656629	373
1	1969	207.038372656629	374
1	1985	208.95724962754	375
1	1985	208.95724962754	376
1	1985	208.95724962754	377
1	2001	210.597219936073	378
1	2001	210.597219936073	379
1	2001	210.597219936073	380
1	2019	213.495505782944	381
1	2019	213.495505782944	382
1	2019	213.495505782944	383
1	2035	215.385065025219	384
1	2035	215.385065025219	385
1	2035	215.385065025219	386
1	2051	216.747703159887	387
1	2051	216.747703159887	388
1	2051	216.747703159887	389
1	2067	218.112718308428	390
1	2067	218.112718308428	391
1	2067	218.112718308428	392
1	2083	219.814940193128	393
1	2083	219.814940193128	394
1	2083	219.814940193128	395
1	2099	221.562679819471	396
1	2099	221.562679819471	397
1	2099	221.562679819471	398
1	2115	222.977510661247	399
1	2115	222.977510661247	400
1	2115	222.977510661247	401
1	2131	224.941659040693	402
1	2131	224.941659040693	403
1	2131	224.941659040693	404
1	2140	226.896921446816	405
1	2140	226.896921446816	406
1	2140	226.896921446816	407
1	2156	228.613083777748	408
1	2156	228.613083777748	409
1	2156	228.613083777748	410
1	2172	230.55824112409	411
1	2172	230.55824112409	412
1	2172	230.55824112409	413
1	2188	231.622997350641	414
1	2188	231.622997350641	415
1	2188	231.622997350641	416
1	2204	232.729066095044	417
1	2204	232.729066095044	418
1	2204	232.729066095044	419
1	2220	234.588908271606	420
1	2220	234.588908271606	421
1	2220	234.588908271606	422
1	2236	236.058168423662	423
1	2236	236.058168423662	424
1	2236	236.058168423662	425
1	2252	237.840086010394	426
1	2252	237.840086010394	427
1	2252	237.840086010394	428
1	2268	239.825820022958	429
1	2268	239.825820022958	430
1	2268	239.825820022958	431
2	7	0.227595799025	0
2	7	0.227595799025	1
2	23	2.132874706435	2
2	23	2.132874706435	3
2	39	4.026364180471	4
2	39	4.026364180471	5
2	57	7.078593677305	6
2	57	7.078593677305	7
2	74	8.149867006813	8
2	74	8.149867006813	9
2	90	9.181353234209	10
2	90	9.181353234209	11
2	105	10.424543051636	12
2	105	10.424543051636	13
2	121	11.469400973962	14
2	121	11.469400973962	15
2	137	12.770517294891	16
2	137	12.770517294891	17
2	146	14.481138661663	18
2	146	14.481138661663	19
2	162	16.206326285581	20
2	162	16.206326285581	21
2	182	17.598521080956	22
2	182	17.598521080956	23
2	198	19.065744195921	24
2	198	19.065744195921	25
2	219	21.915612425378	26
2	219	21.915612425378	27
2	231	23.737147501973	28
2	231	23.737147501973	29
2	245	24.781448776677	30
2	245	24.781448776677	31
2	263	26.759448566763	32
2	263	26.759448566763	33
2	282	29.070404128248	34
2	282	29.070404128248	35
2	300	31.007515909572	36
2	300	31.007515909572	37
2	315	33.99582858404	38
2	315	33.99582858404	39
2	332	35.243905873754	40
2	332	35.243905873754	41
2	351	36.505860790623	42
2	351	36.505860790623	43
2	363	37.923840231377	44
2	363	37.923840231377	45
2	380	38.961997989042	46
2	380	38.961997989042	47
2	395	40.341955102953	48
2	395	40.341955102953	49
2	411	41.520214208073	50
2	411	41.520214208073	51
2	430	42.815453244623	52
2	430	42.815453244623	53
2	450	43.849273031024	54
2	450	43.849273031024	55
2	462	45.03789733475	56
2	462	45.03789733475	57
2	475	46.842054113669	58
2	475	46.842054113669	59
2	498	48.300296137683	60
2	498	48.300296137683	61
2	510	51.059063107743	62
2	510	51.059063107743	63
2	525	52.59192017844	64
2	525	52.59192017844	65
2	542	54.480598474791	66
2	542	54.480598474791	67
2	557	56.145662923984	68
2	557	56.145662923984	69
2	573	58.012700593002	70
2	573	58.012700593002	71
2	596	59.859942438235	72
2	596	59.859942438235	73
2	612	61.812878795255	74
2	612	61.812878795255	75
2	621	63.448139515285	76
2	621	63.448139515285	77
2	637	64.460499088989	78
2	637	64.460499088989	79
2	656	66.394433517601	80
2	656	66.394433517601	81
2	669	67.47080668409	82
2	669	67.47080668409	83
2	687	70.522542077799	84
2	687	70.522542077799	85
2	705	73.737717854582	86
2	705	73.737717854582	87
2	721	75.722770637897	88
2	721	75.722770637897	89
2	737	77.464824454373	90
2	737	77.464824454373	91
2	753	78.764514414223	92
2	753	78.764514414223	93
2	769	80.447866399966	94
2	769	80.447866399966	95
2	785	82.331295763388	96
2	785	82.331295763388	97
2	801	83.639522609382	98
2	801	83.639522609382	99
2	818	85.501402608438	100
2	818	85.501402608438	101
2	833	86.603387932821	102
2	833	86.603387932821	103
2	850	87.816836893198	104
2	850	87.816836893198	105
2	865	89.668199109809	106
2	865	89.668199109809	107
2	877	90.882193565622	108
2	877	90.882193565622	109
2	890	92.086864566654	110
2	890	92.086864566654	111
2	908	94.985175411188	112
2	908	94.985175411188	113
2	924	96.164708635095	114
2	924	96.164708635095	115
2	943	97.208929788744	116
2	943	97.208929788744	117
2	956	98.636024199351	118
2	956	98.636024199351	119
2	972	100.116592957798	120
2	972	100.116592957798	121
2	988	101.95459397364	122
2	988	101.95459397364	123
2	1004	103.10560022556	124
2	1004	103.10560022556	125
2	1020	104.868453380917	126
2	1020	104.868453380917	127
2	1036	106.634885341571	128
2	1036	106.634885341571	129
2	1059	108.296195059473	130
2	1059	108.296195059473	131
2	1069	109.26517337492	132
2	1069	109.26517337492	133
2	1090	111.496341240547	134
2	1090	111.496341240547	135
2	1102	112.531454972356	136
2	1102	112.531454972356	137
2	1118	114.450789717717	138
2	1118	114.450789717717	139
2	1137	117.534333920916	140
2	1137	117.534333920916	141
2	1153	119.448360894052	142
2	1153	119.448360894052	143
2	1176	123.464803100298	144
2	1176	123.464803100298	145
2	1199	124.590486928319	146
2	1199	124.590486928319	147
2	1209	126.192412332609	148
2	1209	126.192412332609	149
2	1233	129.235198557092	150
2	1233	129.235198557092	151
2	1250	133.250047557118	152
2	1250	133.250047557118	153
2	1266	134.799508498712	154
2	1266	134.799508498712	155
2	1284	137.337382885478	156
2	1284	137.337382885478	157
2	1300	138.35390734695	158
2	1300	138.35390734695	159
2	1317	140.090451847685	160
2	1317	140.090451847685	161
2	1339	141.596065581241	162
2	1339	141.596065581241	163
2	1349	142.874340848285	164
2	1349	142.874340848285	165
2	1365	144.230243781954	166
2	1365	144.230243781954	167
2	1387	145.87917549927	168
2	1387	145.87917549927	169
2	1396	147.47909963745	170
2	1396	147.47909963745	171
2	1413	149.289257837914	172
2	1413	149.289257837914	173
2	1431	150.706987190885	174
2	1431	150.706987190885	175
2	1447	151.99231921507	176
2	1447	151.99231921507	177
2	1467	153.200942594287	178
2	1467	153.200942594287	179
2	1476	154.714793506639	180
2	1476	154.714793506639	181
2	1499	156.419347870012	182
2	1499	156.419347870012	183
2	1508	158.354847734697	184
2	1508	158.354847734697	185
2	1531	159.781832775406	186
2	1531	159.781832775406	187
2	1541	160.846024524619	188
2	1541	160.846024524619	189
2	1559	162.543943371293	190
2	1559	162.543943371293	191
2	1573	163.6184179242	192
2	1573	163.6184179242	193
2	1588	165.492742456618	194
2	1588	165.492742456618	195
2	1604	166.763642032624	196
2	1604	166.763642032624	197
2	1615	169.591324494761	198
2	1615	169.591324494761	199
2	1631	171.153526965373	200
2	1631	171.153526965373	201
2	1651	172.380753226589	202
2	1651	172.380753226589	203
2	1670	174.183639867629	204
2	1670	174.183639867629	205
2	1680	175.390785112275	206
2	1680	175.390785112275	207
2	1695	177.212175505611	208
2	1695	177.212175505611	209
2	1711	178.635355917795	210
2	1711	178.635355917795	211
2	1730	181.628212307288	212
2	1730	181.628212307288	213
2	1752	183.324013442337	214
2	1752	183.324013442337	215
2	1761	184.388347299141	216
2	1761	184.388347299141	217
2	1779	187.533275648718	218
2	1779	187.533275648718	219
2	1795	189.290966620245	220
2	1795	189.290966620245	221
2	1812	190.972238095995	222
2	1812	190.972238095995	223
2	1827	192.695175984828	224
2	1827	192.695175984828	225
2	1847	194.331439762175	226
2	1847	194.331439762175	227
2	1861	197.505261908078	228
2	1861	197.505261908078	229
2	1877	198.925503617569	230
2	1877	198.925503617569	231
2	1894	200.000315062105	232
2	1894	200.000315062105	233
2	1910	201.126822739504	234
2	1910	201.126822739504	235
2	1926	202.752627450983	236
2	1926	202.752627450983	237
2	1941	204.232554002091	238
2	1941	204.232554002091	239
2	1958	205.868681790784	240
2	1958	205.868681790784	241
2	1980	207.081161785868	242
2	1980	207.081161785868	243
2	1996	209.016657805703	244
2	1996	209.016657805703	245
2	2005	210.612532945046	246
2	2005	210.612532945046	247
2	2024	213.510406484473	248
2	2024	213.510406484473	249
2	2039	215.395849796082	250
2	2039	215.395849796082	251
2	2055	216.761685757484	252
2	2055	216.761685757484	253
2	2071	218.127405222725	254
2	2071	218.127405222725	255
2	2090	219.845770517927	256
2	2090	219.845770517927	257
2	2103	221.580598747672	258
2	2103	221.580598747672	259
2	2119	222.989129816014	260
2	2119	222.989129816014	261
2	2151	226.944187833096	262
2	2151	226.944187833096	263
2	2160	228.63349539138	264
2	2160	228.63349539138	265
2	2176	230.56896466967	266
2	2176	230.56896466967	267
2	2196	231.666976199515	268
2	2196	231.666976199515	269
2	2208	232.765266077291	270
2	2208	232.765266077291	271
2	2225	234.61069440577	272
2	2225	234.61069440577	273
2	2240	236.088406013888	274
2	2240	236.088406013888	275
2	2263	237.892716610863	276
2	2263	237.892716610863	277
2	2276	239.869521772014	278
2	2276	239.869521772014	279
3	8	0.228177698444	0
3	8	0.228177698444	1
3	30	2.195648017728	2
3	30	2.195648017728	3
3	46	4.052019739815	4
3	46	4.052019739815	5
3	58	7.086563005229	6
3	58	7.086563005229	7
3	73	8.147148523973	8
3	73	8.147148523973	9
3	89	9.179080225243	10
3	89	9.179080225243	11
3	106	10.432566850942	12
3	106	10.432566850942	13
3	125	11.487715826825	14
3	125	11.487715826825	15
3	147	14.48153241064	16
3	147	14.48153241064	17
3	169	16.270735604262	18
3	169	16.270735604262	19
3	178	17.581339333694	20
3	178	17.581339333694	21
3	194	19.0479120932	22
3	194	19.0479120932	23
3	212	21.871139537114	24
3	212	21.871139537114	25
3	228	23.726848424515	26
3	228	23.726848424515	27
3	244	24.778941282012	28
3	244	24.778941282012	29
3	256	26.728297101617	30
3	256	26.728297101617	31
3	272	27.795207523845	32
3	272	27.795207523845	33
3	281	29.060429108989	34
3	281	29.060429108989	35
3	297	30.975025815676	36
3	297	30.975025815676	37
3	316	34.003329159813	38
3	316	34.003329159813	39
3	331	35.234528469066	40
3	331	35.234528469066	41
3	347	36.484798802254	42
3	347	36.484798802254	43
3	370	37.980713376296	44
3	370	37.980713376296	45
3	379	38.95784064578	46
3	379	38.95784064578	47
3	396	40.34397436663	48
3	396	40.34397436663	49
3	412	41.522051241633	50
3	412	41.522051241633	51
3	427	42.789263866492	52
3	427	42.789263866492	53
3	443	43.826265179988	54
3	443	43.826265179988	55
3	459	45.023534081531	56
3	459	45.023534081531	57
3	476	46.84645392249	58
3	476	46.84645392249	59
3	491	48.259149674073	60
3	491	48.259149674073	61
3	509	51.056786578343	62
3	509	51.056786578343	63
3	526	52.593855271711	64
3	526	52.593855271711	65
3	541	54.476916020434	66
3	541	54.476916020434	67
3	558	56.147359292994	68
3	558	56.147359292994	69
3	576	58.024309347559	70
3	576	58.024309347559	71
3	589	59.831520753703	72
3	589	59.831520753703	73
3	605	61.789781482027	74
3	605	61.789781482027	75
3	622	63.450822686423	76
3	622	63.450822686423	77
3	638	64.468337770843	78
3	638	64.468337770843	79
3	653	66.383799907333	80
3	653	66.383799907333	81
3	672	67.484112406349	82
3	672	67.484112406349	83
3	694	70.553455535576	84
3	694	70.553455535576	85
3	706	73.742942300603	86
3	706	73.742942300603	87
3	728	75.758162753766	88
3	728	75.758162753766	89
3	738	77.467077356001	90
3	738	77.467077356001	91
3	754	78.76466005576	92
3	754	78.76466005576	93
3	776	80.483207382872	94
3	776	80.483207382872	95
3	788	82.34717361304	96
3	788	82.34717361304	97
3	802	83.643324540319	98
3	802	83.643324540319	99
3	817	85.493979072595	100
3	817	85.493979072595	101
3	840	86.631793837764	102
3	840	86.631793837764	103
3	849	87.813603021335	104
3	849	87.813603021335	105
3	874	90.867757170923	106
3	874	90.867757170923	107
3	893	92.100288841468	108
3	893	92.100288841468	109
3	909	94.987420408801	110
3	909	94.987420408801	111
3	931	96.192931681344	112
3	931	96.192931681344	113
3	940	97.190255920516	114
3	940	97.190255920516	115
3	960	98.669479579416	116
3	960	98.669479579416	117
3	973	100.120357117215	118
3	973	100.120357117215	119
3	992	101.96809573447	120
3	992	101.96809573447	121
3	1005	103.111583404202	122
3	1005	103.111583404202	123
3	1023	104.884393499675	124
3	1023	104.884393499675	125
3	1043	106.669850368548	126
3	1043	106.669850368548	127
3	1052	108.243114456842	128
3	1052	108.243114456842	129
3	1068	109.262122396241	130
3	1068	109.262122396241	131
3	1086	111.482617434912	132
3	1086	111.482617434912	133
3	1103	112.538888631325	134
3	1103	112.538888631325	135
3	1125	114.50339490482	136
3	1125	114.50339490482	137
3	1136	117.526207022948	138
3	1136	117.526207022948	139
3	1152	119.440214860724	140
3	1152	119.440214860724	141
3	1180	123.476972403016	142
3	1180	123.476972403016	143
3	1192	124.522631734167	144
3	1192	124.522631734167	145
3	1208	126.19103330741	146
3	1208	126.19103330741	147
3	1230	129.22171991316	148
3	1230	129.22171991316	149
3	1257	133.296961458151	150
3	1257	133.296961458151	151
3	1267	134.802496749148	152
3	1267	134.802496749148	153
3	1291	137.3694212135	154
3	1291	137.3694212135	155
3	1301	138.355089117083	156
3	1301	138.355089117083	157
3	1316	140.087743463544	158
3	1316	140.087743463544	159
3	1332	141.56178244213	160
3	1332	141.56178244213	161
3	1348	142.870460305442	162
3	1348	142.870460305442	163
3	1364	144.229869651168	164
3	1364	144.229869651168	165
3	1380	145.833453741338	166
3	1380	145.833453741338	167
3	1397	147.487652841821	168
3	1397	147.487652841821	169
3	1412	149.288925065113	170
3	1412	149.288925065113	171
3	1428	150.695091995988	172
3	1428	150.695091995988	173
3	1444	151.973457071491	174
3	1444	151.973457071491	175
3	1460	153.176093885251	176
3	1460	153.176093885251	177
3	1483	154.738345128519	178
3	1483	154.738345128519	179
3	1492	156.388480916647	180
3	1492	156.388480916647	181
3	1515	158.389946133426	182
3	1515	158.389946133426	183
3	1524	159.742315219587	184
3	1524	159.742315219587	185
3	1540	160.839892475389	186
3	1540	160.839892475389	187
3	1556	162.533703316881	188
3	1556	162.533703316881	189
3	1572	163.60896846886	190
3	1572	163.60896846886	191
3	1589	165.493009634227	192
3	1589	165.493009634227	193
3	1619	169.614827010502	194
3	1619	169.614827010502	195
3	1638	171.18317007416	196
3	1638	171.18317007416	197
3	1647	172.364111850849	198
3	1647	172.364111850849	199
3	1663	174.124321664237	200
3	1663	174.124321664237	201
3	1679	175.390703708141	202
3	1679	175.390703708141	203
3	1698	177.227396668032	204
3	1698	177.227396668032	205
3	1712	178.642657199805	206
3	1712	178.642657199805	207
3	1729	181.621108607852	208
3	1729	181.621108607852	209
3	1745	183.288430440208	210
3	1745	183.288430440208	211
3	1762	184.388816442182	212
3	1762	184.388816442182	213
3	1782	187.547636504478	214
3	1782	187.547636504478	215
3	1796	189.296453357642	216
3	1796	189.296453357642	217
3	1811	190.969140196862	218
3	1811	190.969140196862	219
3	1830	192.706292803318	220
3	1830	192.706292803318	221
3	1843	194.319095676875	222
3	1843	194.319095676875	223
3	1862	197.508353195593	224
3	1862	197.508353195593	225
3	1884	198.958568680157	226
3	1884	198.958568680157	227
3	1893	199.999327968696	228
3	1893	199.999327968696	229
3	1909	201.122309375437	230
3	1909	201.122309375437	231
3	1925	202.747591190023	232
3	1925	202.747591190023	233
3	1948	204.263445734559	234
3	1948	204.263445734559	235
3	1957	205.867692080368	236
3	1957	205.867692080368	237
3	1973	207.056287083603	238
3	1973	207.056287083603	239
3	1989	208.985759591464	240
3	1989	208.985759591464	241
3	2012	210.638922239987	242
3	2012	210.638922239987	243
3	2023	213.510346938028	244
3	2023	213.510346938028	245
3	2042	215.406420013479	246
3	2042	215.406420013479	247
3	2059	216.783524540751	248
3	2059	216.783524540751	249
3	2078	218.155150207767	250
3	2078	218.155150207767	251
3	2087	219.834304148925	252
3	2087	219.834304148925	253
3	2104	221.588951810834	254
3	2104	221.588951810834	255
3	2120	222.990899185444	256
3	2120	222.990899185444	257
3	2135	224.95431399783	258
3	2135	224.95431399783	259
3	2144	226.90967190765	260
3	2144	226.90967190765	261
3	2161	228.634123505144	262
3	2161	228.634123505144	263
3	2183	230.651637160096	264
3	2183	230.651637160096	265
3	2192	231.638719748486	266
3	2192	231.638719748486	267
3	2215	232.807796743092	268
3	2215	232.807796743092	269
3	2224	234.600709446271	270
3	2224	234.600709446271	271
3	2247	236.110655599834	272
3	2247	236.110655599834	273
3	2256	237.859268756029	274
3	2256	237.859268756029	275
3	2272	239.850428580835	276
3	2272	239.850428580835	277
4	13	0.239121067698	0
4	13	0.239121067698	1
4	13	0.239121067698	2
4	26	2.183858637926	3
4	26	2.183858637926	4
4	26	2.183858637926	5
4	42	4.036770112783	6
4	42	4.036770112783	7
4	42	4.036770112783	8
4	63	7.109019488448	9
4	63	7.109019488448	10
4	63	7.109019488448	11
4	79	8.159906567633	12
4	79	8.159906567633	13
4	79	8.159906567633	14
4	95	9.193523839405	15
4	95	9.193523839405	16
4	95	9.193523839405	17
4	109	10.435330306458	18
4	109	10.435330306458	19
4	109	10.435330306458	20
4	124	11.484123747615	21
4	124	11.484123747615	22
4	124	11.484123747615	23
4	152	14.498905574378	24
4	152	14.498905574378	25
4	152	14.498905574378	26
4	165	16.234232799485	27
4	165	16.234232799485	28
4	165	16.234232799485	29
4	181	17.592949555854	30
4	181	17.592949555854	31
4	181	17.592949555854	32
4	197	19.063652699409	33
4	197	19.063652699409	34
4	197	19.063652699409	35
4	215	21.888124111118	36
4	215	21.888124111118	37
4	215	21.888124111118	38
4	232	23.74210150411	39
4	232	23.74210150411	40
4	232	23.74210150411	41
4	259	26.738465691404	42
4	259	26.738465691404	43
4	259	26.738465691404	44
4	285	29.077681096431	45
4	285	29.077681096431	46
4	285	29.077681096431	47
4	303	31.031534272706	48
4	303	31.031534272706	49
4	303	31.031534272706	50
4	321	34.065366372294	51
4	321	34.065366372294	52
4	321	34.065366372294	53
4	337	35.258361139127	54
4	337	35.258361139127	55
4	337	35.258361139127	56
4	350	36.498558350171	57
4	350	36.498558350171	58
4	350	36.498558350171	59
4	366	37.941557410604	60
4	366	37.941557410604	61
4	366	37.941557410604	62
4	385	38.981594128392	63
4	385	38.981594128392	64
4	385	38.981594128392	65
4	401	40.387605211337	66
4	401	40.387605211337	67
4	401	40.387605211337	68
4	417	41.550117321163	69
4	417	41.550117321163	70
4	417	41.550117321163	71
4	433	42.826402862999	72
4	433	42.826402862999	73
4	433	42.826402862999	74
4	446	43.83732490069	75
4	446	43.83732490069	76
4	446	43.83732490069	77
4	465	45.095773055028	78
4	465	45.095773055028	79
4	465	45.095773055028	80
4	479	46.854081642134	81
4	479	46.854081642134	82
4	479	46.854081642134	83
4	494	48.273011662859	84
4	494	48.273011662859	85
4	494	48.273011662859	86
4	515	51.071181270722	87
4	515	51.071181270722	88
4	515	51.071181270722	89
4	531	52.618803171057	90
4	531	52.618803171057	91
4	531	52.618803171057	92
4	547	54.514027966179	93
4	547	54.514027966179	94
4	547	54.514027966179	95
4	563	56.162694907462	96
4	563	56.162694907462	97
4	563	56.162694907462	98
4	577	58.03105876727	99
4	577	58.03105876727	100
4	577	58.03105876727	101
4	592	59.843163478941	102
4	592	59.843163478941	103
4	592	59.843163478941	104
4	608	61.800964486397	105
4	608	61.800964486397	106
4	608	61.800964486397	107
4	627	63.482088984921	108
4	627	63.482088984921	109
4	627	63.482088984921	110
4	641	64.47197861315	111
4	641	64.47197861315	112
4	641	64.47197861315	113
4	657	66.399451954808	114
4	657	66.399451954808	115
4	657	66.399451954808	116
4	673	67.491941338077	117
4	673	67.491941338077	118
4	673	67.491941338077	119
4	690	70.540530431464	120
4	690	70.540530431464	121
4	690	70.540530431464	122
4	709	73.751164524382	123
4	709	73.751164524382	124
4	709	73.751164524382	125
4	724	75.739662845072	126
4	724	75.739662845072	127
4	724	75.739662845072	128
4	743	77.487599719441	129
4	743	77.487599719441	130
4	743	77.487599719441	131
4	759	78.780338696064	132
4	759	78.780338696064	133
4	759	78.780338696064	134
4	772	80.461264565123	135
4	772	80.461264565123	136
4	772	80.461264565123	137
4	791	82.360104655195	138
4	791	82.360104655195	139
4	791	82.360104655195	140
4	807	83.653527195789	141
4	807	83.653527195789	142
4	807	83.653527195789	143
4	823	85.528660956138	144
4	823	85.528660956138	145
4	823	85.528660956138	146
4	836	86.619176732671	147
4	836	86.619176732671	148
4	836	86.619176732671	149
4	853	87.826571398876	150
4	853	87.826571398876	151
4	853	87.826571398876	152
4	878	90.888025062862	153
4	878	90.888025062862	154
4	878	90.888025062862	155
4	894	92.100493531064	156
4	894	92.100493531064	157
4	894	92.100493531064	158
4	914	95.019497264044	159
4	914	95.019497264044	160
4	914	95.019497264044	161
4	927	96.178709861145	162
4	927	96.178709861145	163
4	927	96.178709861145	164
4	944	97.216867563305	165
4	944	97.216867563305	166
4	944	97.216867563305	167
4	959	98.667692328026	168
4	959	98.667692328026	169
4	959	98.667692328026	170
4	978	100.136285219176	171
4	978	100.136285219176	172
4	978	100.136285219176	173
4	991	101.967180612314	174
4	991	101.967180612314	175
4	991	101.967180612314	176
4	1010	103.128297737393	177
4	1010	103.128297737393	178
4	1010	103.128297737393	179
4	1024	104.88725989822	180
4	1024	104.88725989822	181
4	1024	104.88725989822	182
4	1039	106.645557414853	183
4	1039	106.645557414853	184
4	1039	106.645557414853	185
4	1055	108.259068857878	186
4	1055	108.259068857878	187
4	1055	108.259068857878	188
4	1074	109.290224274628	189
4	1074	109.290224274628	190
4	1074	109.290224274628	191
4	1089	111.494218953185	192
4	1089	111.494218953185	193
4	1089	111.494218953185	194
4	1108	112.579769285592	195
4	1108	112.579769285592	196
4	1108	112.579769285592	197
4	1121	114.492912812756	198
4	1121	114.492912812756	199
4	1121	114.492912812756	200
4	1142	117.573367389987	201
4	1142	117.573367389987	202
4	1142	117.573367389987	203
4	1158	119.458733305514	204
4	1158	119.458733305514	205
4	1158	119.458733305514	206
4	1179	123.476095768543	207
4	1179	123.476095768543	208
4	1179	123.476095768543	209
4	1195	124.534614355651	210
4	1195	124.534614355651	211
4	1195	124.534614355651	212
4	1212	126.201889019385	213
4	1212	126.201889019385	214
4	1212	126.201889019385	215
4	1236	129.246004489759	216
4	1236	129.246004489759	217
4	1236	129.246004489759	218
4	1253	133.276367818149	219
4	1253	133.276367818149	220
4	1253	133.276367818149	221
4	1272	134.828674546155	222
4	1272	134.828674546155	223
4	1272	134.828674546155	224
4	1287	137.357867447292	225
4	1287	137.357867447292	226
4	1287	137.357867447292	227
4	1306	138.372610205319	228
4	1306	138.372610205319	229
4	1306	138.372610205319	230
4	1322	140.104238771575	231
4	1322	140.104238771575	232
4	1322	140.104238771575	233
4	1335	141.581136765451	234
4	1335	141.581136765451	235
4	1335	141.581136765451	236
4	1354	142.898453345027	237
4	1354	142.898453345027	238
4	1354	142.898453345027	239
4	1370	144.241710446097	240
4	1370	144.241710446097	241
4	1370	144.241710446097	242
4	1383	145.856106070759	243
4	1383	145.856106070759	244
4	1383	145.856106070759	245
4	1400	147.489541303861	246
4	1400	147.489541303861	247
4	1400	147.489541303861	248
4	1418	149.308650486508	249
4	1418	149.308650486508	250
4	1418	149.308650486508	251
4	1434	150.722739643262	252
4	1434	150.722739643262	253
4	1434	150.722739643262	254
4	1450	152.014803057161	255
4	1450	152.014803057161	256
4	1450	152.014803057161	257
4	1463	153.186860677385	258
4	1463	153.186860677385	259
4	1463	153.186860677385	260
4	1479	154.725861652379	261
4	1479	154.725861652379	262
4	1479	154.725861652379	263
4	1495	156.399778763243	264
4	1495	156.399778763243	265
4	1495	156.399778763243	266
4	1511	158.366356918919	267
4	1511	158.366356918919	268
4	1511	158.366356918919	269
4	1527	159.75255231673	270
4	1527	159.75255231673	271
4	1527	159.75255231673	272
4	1544	160.855273197519	273
4	1544	160.855273197519	274
4	1544	160.855273197519	275
4	1562	162.557546804387	276
4	1562	162.557546804387	277
4	1562	162.557546804387	278
4	1578	163.630981360562	279
4	1578	163.630981360562	280
4	1578	163.630981360562	281
4	1594	165.513859323478	282
4	1594	165.513859323478	283
4	1594	165.513859323478	284
4	1618	169.604917445651	285
4	1618	169.604917445651	286
4	1618	169.604917445651	287
4	1634	171.168754146137	288
4	1634	171.168754146137	289
4	1634	171.168754146137	290
4	1650	172.378432548344	291
4	1650	172.378432548344	292
4	1650	172.378432548344	293
4	1666	174.169962831664	294
4	1666	174.169962831664	295
4	1666	174.169962831664	296
4	1685	175.403420209781	297
4	1685	175.403420209781	298
4	1685	175.403420209781	299
4	1701	177.249212762288	300
4	1701	177.249212762288	301
4	1701	177.249212762288	302
4	1717	178.658302554682	303
4	1717	178.658302554682	304
4	1717	178.658302554682	305
4	1735	181.640504514553	306
4	1735	181.640504514553	307
4	1735	181.640504514553	308
4	1748	183.305958676095	309
4	1748	183.305958676095	310
4	1748	183.305958676095	311
4	1767	184.413754109245	312
4	1767	184.413754109245	313
4	1767	184.413754109245	314
4	1785	187.567163320766	315
4	1785	187.567163320766	316
4	1785	187.567163320766	317
4	1801	189.307874065959	318
4	1801	189.307874065959	319
4	1801	189.307874065959	320
4	1817	190.982964481534	321
4	1817	190.982964481534	322
4	1817	190.982964481534	323
4	1833	192.724696045754	324
4	1833	192.724696045754	325
4	1833	192.724696045754	326
4	1846	194.331183038078	327
4	1846	194.331183038078	328
4	1846	194.331183038078	329
4	1867	197.553455083815	330
4	1867	197.553455083815	331
4	1867	197.553455083815	332
4	1880	198.942766842128	333
4	1880	198.942766842128	334
4	1880	198.942766842128	335
4	1899	200.024291117679	336
4	1899	200.024291117679	337
4	1899	200.024291117679	338
4	1913	201.134713315243	339
4	1913	201.134713315243	340
4	1913	201.134713315243	341
4	1931	202.771194467317	342
4	1931	202.771194467317	343
4	1931	202.771194467317	344
4	1944	204.252785385617	345
4	1944	204.252785385617	346
4	1944	204.252785385617	347
4	1961	205.878162827692	348
4	1961	205.878162827692	349
4	1961	205.878162827692	350
4	1976	207.070582933446	351
4	1976	207.070582933446	352
4	1976	207.070582933446	353
4	1992	209.003099279403	354
4	1992	209.003099279403	355
4	1992	209.003099279403	356
4	2008	210.625544610014	357
4	2008	210.625544610014	358
4	2008	210.625544610014	359
4	2029	213.527579379267	360
4	2029	213.527579379267	361
4	2029	213.527579379267	362
4	2045	215.420948500802	363
4	2045	215.420948500802	364
4	2045	215.420948500802	365
4	2058	216.774538434599	366
4	2058	216.774538434599	367
4	2058	216.774538434599	368
4	2074	218.14413932388	369
4	2074	218.14413932388	370
4	2074	218.14413932388	371
4	2091	219.849761019837	372
4	2091	219.849761019837	373
4	2091	219.849761019837	374
4	2109	221.599662123405	375
4	2109	221.599662123405	376
4	2109	221.599662123405	377
4	2125	223.004524865492	378
4	2125	223.004524865492	379
4	2125	223.004524865492	380
4	2147	226.922883926732	381
4	2147	226.922883926732	382
4	2147	226.922883926732	383
4	2166	228.662059978056	384
4	2166	228.662059978056	385
4	2166	228.662059978056	386
4	2179	230.587305190431	387
4	2179	230.587305190431	388
4	2179	230.587305190431	389
4	2195	231.65757836366	390
4	2195	231.65757836366	391
4	2195	231.65757836366	392
4	2211	232.780613740475	393
4	2211	232.780613740475	394
4	2211	232.780613740475	395
4	2230	234.625892825727	396
4	2230	234.625892825727	397
4	2230	234.625892825727	398
4	2243	236.098606449441	399
4	2243	236.098606449441	400
4	2243	236.098606449441	401
4	2259	237.873780677759	402
4	2259	237.873780677759	403
4	2259	237.873780677759	404
4	2275	239.865276468493	405
4	2275	239.865276468493	406
4	2275	239.865276468493	407
5	16	0.249121067698	0
5	29	2.193858637926	1
5	45	4.046770112783	2
5	66	7.119019488448	3
5	82	8.169906567633	4
5	98	9.203523839405	5
5	114	10.445330306458	6
5	128	11.494123747615	7
5	155	14.508905574378	8
5	168	16.244232799485	9
5	185	17.602949555854	10
5	201	19.073652699409	11
5	218	21.898124111118	12
5	262	26.748465691404	13
5	290	29.087681096431	14
5	306	31.041534272706	15
5	324	34.075366372294	16
5	340	35.268361139127	17
5	354	36.508558350171	18
5	369	37.951557410604	19
5	388	38.991594128392	20
5	404	40.397605211337	21
5	420	41.560117321163	22
5	436	42.836402862999	23
5	449	43.84732490069	24
5	468	45.105773055028	25
5	484	46.864081642134	26
5	497	48.283011662859	27
5	518	51.081181270722	28
5	534	52.628803171057	29
5	550	54.524027966179	30
5	566	56.172694907462	31
5	582	58.04105876727	32
5	595	59.853163478941	33
5	611	61.810964486397	34
5	630	63.492088984921	35
5	646	64.48197861315	36
5	662	66.409451954808	37
5	678	67.501941338077	38
5	693	70.550530431464	39
5	727	75.749662845072	40
5	746	77.497599719441	41
5	762	78.790338696064	42
5	775	80.471264565123	43
5	794	82.370104655195	44
5	810	83.663527195789	45
5	826	85.538660956138	46
5	839	86.629176732671	47
5	899	92.110493531064	48
5	930	96.188709861145	49
5	949	97.226867563305	50
5	963	98.677692328026	51
5	981	100.146285219176	52
5	995	101.977180612314	53
5	1013	103.138297737393	54
5	1029	104.89725989822	55
5	1042	106.655557414853	56
5	1058	108.269068857878	57
5	1077	109.300224274628	58
5	1093	111.504218953185	59
5	1111	112.589769285592	60
5	1145	117.583367389987	61
5	1161	119.468733305514	62
5	1183	123.486095768543	63
5	1198	124.544614355651	64
5	1217	126.211889019385	65
5	1239	129.256004489759	66
5	1256	133.286367818149	67
5	1275	134.838674546155	68
5	1290	137.367867447292	69
5	1309	138.382610205319	70
5	1325	140.114238771575	71
5	1338	141.591136765451	72
5	1357	142.908453345027	73
5	1373	144.251710446097	74
5	1386	145.866106070759	75
5	1453	152.024803057161	76
5	1466	153.196860677385	77
5	1482	154.735861652379	78
5	1498	156.409778763243	79
5	1514	158.376356918919	80
5	1530	159.76255231673	81
5	1549	160.865273197519	82
5	1597	165.523859323478	83
5	1622	169.614917445651	84
5	1637	171.178754146137	85
5	1654	172.388432548344	86
5	1669	174.179962831664	87
5	1688	175.413420209781	88
5	1704	177.259212762288	89
5	1720	178.668302554682	90
5	1738	181.650504514553	91
5	1751	183.315958676095	92
5	1770	184.423754109245	93
5	1788	187.577163320766	94
5	1804	189.317874065959	95
5	1820	190.992964481534	96
5	1836	192.734696045754	97
5	1850	194.341183038078	98
5	1870	197.563455083815	99
5	1883	198.952766842128	100
5	1902	200.034291117679	101
5	1918	201.144713315243	102
5	1934	202.781194467317	103
5	1947	204.262785385617	104
5	1966	205.888162827692	105
5	1979	207.080582933446	106
5	1995	209.013099279403	107
5	2011	210.635544610014	108
5	2032	213.537579379267	109
5	2048	215.430948500802	110
5	2062	216.784538434599	111
5	2077	218.15413932388	112
5	2096	219.859761019837	113
5	2112	221.609662123405	114
5	2128	223.014524865492	115
5	2150	226.932883926732	116
5	2169	228.672059978056	117
5	2182	230.597305190431	118
5	2199	231.66757836366	119
5	2214	232.790613740475	120
5	2262	237.883780677759	121
5	2279	239.875276468493	122

