version 2
run General-2-20231008-05:33:00-14160
attr configname General
attr datetime 20231008-05:33:00
attr experiment General
attr inifile omnetpp.ini
attr iterationvars ""
attr iterationvarsf ""
attr measurement ""
attr network Reliability
attr processid 14160
attr repetition 2
attr replication #2
attr resultdir results
attr runnumber 2
attr seedset 2
param Reliability.node[*].transmissionTime "uniform(1s, 2s)"
param Reliability.node[*].delayTime "uniform(0.01s, 0.2s)"
param Reliability.node[*].processingTime exponential(0.01s)
param Reliability.node[*].lossProbability 0.1

vector 0 Reliability.node[0] txVector ETV
vector 1 Reliability.node[1] txVector ETV
vector 2 Reliability.node[3] txVector ETV
vector 3 Reliability.node[2] txVector ETV
vector 4 Reliability.node[4] txVector ETV
vector 5 Reliability.node[5] rxVector ETV
0	1	0.092839031499	0
0	3	1.277921112972	1
0	19	3.20946197656	2
0	35	4.84219970719	3
0	51	6.249507539692	4
0	67	7.815272670026	5
0	83	9.608362413031	6
0	99	10.825632332844	7
0	115	12.623832721749	8
0	131	14.512136468218	9
0	147	15.835010685279	10
0	163	17.228943976593	11
0	179	18.592269867911	12
0	195	19.973962806418	13
0	211	21.76013505228	14
0	227	23.128742593826	15
0	243	25.046461315613	16
0	259	26.323900530834	17
0	261	27.838759697994	18
0	277	29.718750049148	19
0	293	31.224161684301	20
0	295	32.510430936024	21
0	301	34.323212887647	22
0	303	35.339323152809	23
0	319	37.274358880727	24
0	335	38.304727132686	25
0	351	40.177854472792	26
0	367	41.187826378757	27
0	379	42.341392053544	28
0	395	44.168845403959	29
0	411	45.938582372173	30
0	427	47.477764983681	31
0	443	48.546364170752	32
0	459	50.303368810351	33
0	475	51.486653594553	34
0	491	52.499890628291	35
0	507	54.150982818354	36
0	523	55.541957080385	37
0	539	57.393629354213	38
0	541	59.277151042849	39
0	557	60.440490312662	40
0	573	61.806376878891	41
0	589	63.014418495839	42
0	605	64.214314676841	43
0	621	65.688207583755	44
0	637	66.717989332761	45
0	653	67.936776279026	46
0	665	69.30204231294	47
0	681	71.071876502849	48
0	697	72.274237169904	49
0	713	74.250781724948	50
0	729	75.864413158057	51
0	745	77.024690079989	52
0	761	78.735710762229	53
0	777	80.516468284439	54
0	793	82.051211275646	55
0	795	83.43612021885	56
0	797	85.277182812589	57
0	813	86.312967790077	58
0	829	87.520171240923	59
0	845	88.60882055156	60
0	861	90.588984122519	61
0	877	92.05059186115	62
0	879	93.66693513237	63
0	895	95.603154360103	64
0	911	96.957548639756	65
0	927	98.75957764105	66
0	929	100.175705401945	67
0	945	101.998506969559	68
0	961	103.287894188446	69
0	977	104.412881344111	70
0	993	106.242510513655	71
0	1009	107.746532460694	72
0	1025	109.410494870991	73
0	1041	110.951462968039	74
0	1057	112.323667548616	75
0	1059	113.646624189355	76
0	1075	115.473421669817	77
0	1091	116.5166425619	78
0	1107	118.056060700231	79
0	1123	119.484266087199	80
0	1139	121.214801120591	81
0	1155	123.086492658612	82
0	1171	124.224971175213	83
0	1187	125.833882017546	84
0	1203	127.545048682504	85
0	1219	128.747939941958	86
0	1235	130.049595018635	87
0	1251	132.028844308593	88
0	1264	133.530050340361	89
0	1280	134.854445406023	90
0	1296	136.17033754687	91
0	1298	137.899244024206	92
0	1314	139.127196821405	93
0	1316	140.597911545795	94
0	1318	141.889027668417	95
0	1334	142.994417537956	96
0	1350	144.439234403914	97
0	1366	145.917879126521	98
0	1382	147.548890539931	99
0	1398	149.380674119128	100
0	1400	150.476191724671	101
0	1416	151.488242921906	102
0	1432	152.716321113307	103
0	1448	154.654752137858	104
0	1450	156.414670733522	105
0	1452	158.284696512177	106
0	1468	159.787717916324	107
0	1484	161.097892858341	108
0	1500	162.538305108688	109
0	1516	164.478974067626	110
0	1525	165.83968036554	111
0	1527	167.05271690923	112
0	1543	168.695897231132	113
0	1559	170.154652429532	114
0	1575	171.391715021824	115
0	1591	172.466347434345	116
0	1607	173.695590373847	117
0	1623	175.226427036357	118
0	1639	176.491279105675	119
0	1655	177.61159485464	120
0	1671	179.479180601444	121
0	1687	180.883098776238	122
0	1703	182.672772810347	123
0	1719	183.782126419032	124
0	1735	184.928353272863	125
0	1737	186.17781237375	126
0	1753	187.364433133295	127
0	1755	188.731169223106	128
0	1771	190.05781929453	129
0	1787	191.321222720454	130
0	1803	192.364562565713	131
0	1819	193.734197692034	132
0	1835	195.379981642609	133
0	1851	197.231258911566	134
0	1867	198.888495729092	135
0	1883	200.26265468334	136
0	1899	201.866881160319	137
0	1915	203.713902517941	138
0	1931	204.793978438268	139
0	1947	206.731032623698	140
0	1960	207.810977329056	141
0	1976	208.992312850219	142
0	1992	210.528528388844	143
0	2008	211.887448517394	144
0	2024	213.870910493911	145
0	2040	215.794179522919	146
0	2056	217.408518747215	147
0	2072	219.002835752231	148
0	2081	220.846986695214	149
0	2097	222.779044988121	150
0	2113	224.641833094436	151
0	2129	225.758691471092	152
0	2145	226.784840594766	153
0	2161	228.014346679229	154
0	2177	229.605918682901	155
0	2193	230.635961218992	156
0	2209	232.366594158135	157
0	2211	233.43477747382	158
0	2227	235.051096942996	159
0	2243	236.162119370674	160
0	2259	238.089254614686	161
0	2275	239.519961219536	162
1	5	1.317434556699	0
1	5	1.317434556699	1
1	5	1.317434556699	2
1	21	3.236511927501	3
1	21	3.236511927501	4
1	21	3.236511927501	5
1	37	4.854147511143	6
1	37	4.854147511143	7
1	37	4.854147511143	8
1	53	6.26201570879	9
1	53	6.26201570879	10
1	53	6.26201570879	11
1	69	7.836151227375	12
1	69	7.836151227375	13
1	69	7.836151227375	14
1	85	9.668368706119	15
1	85	9.668368706119	16
1	85	9.668368706119	17
1	101	10.852459863436	18
1	101	10.852459863436	19
1	101	10.852459863436	20
1	117	12.662167717085	21
1	117	12.662167717085	22
1	117	12.662167717085	23
1	133	14.53648837348	24
1	133	14.53648837348	25
1	133	14.53648837348	26
1	149	15.87112174637	27
1	149	15.87112174637	28
1	149	15.87112174637	29
1	165	17.24593979331	30
1	165	17.24593979331	31
1	165	17.24593979331	32
1	181	18.635093237342	33
1	181	18.635093237342	34
1	181	18.635093237342	35
1	197	19.991558763067	36
1	197	19.991558763067	37
1	197	19.991558763067	38
1	213	21.77256604575	39
1	213	21.77256604575	40
1	213	21.77256604575	41
1	229	23.139150930804	42
1	229	23.139150930804	43
1	229	23.139150930804	44
1	245	25.083988869637	45
1	245	25.083988869637	46
1	245	25.083988869637	47
1	263	27.864121197178	48
1	263	27.864121197178	49
1	263	27.864121197178	50
1	279	29.732831155155	51
1	279	29.732831155155	52
1	279	29.732831155155	53
1	297	32.528324713332	54
1	297	32.528324713332	55
1	297	32.528324713332	56
1	305	35.354275721951	57
1	305	35.354275721951	58
1	305	35.354275721951	59
1	321	37.287510838248	60
1	321	37.287510838248	61
1	321	37.287510838248	62
1	337	38.321364060529	63
1	337	38.321364060529	64
1	337	38.321364060529	65
1	353	40.192523214981	66
1	353	40.192523214981	67
1	353	40.192523214981	68
1	369	41.227143465774	69
1	369	41.227143465774	70
1	369	41.227143465774	71
1	381	42.35915077424	72
1	381	42.35915077424	73
1	381	42.35915077424	74
1	397	44.184668416598	75
1	397	44.184668416598	76
1	397	44.184668416598	77
1	413	45.954224880624	78
1	413	45.954224880624	79
1	413	45.954224880624	80
1	429	47.488791382221	81
1	429	47.488791382221	82
1	429	47.488791382221	83
1	445	48.561626942051	84
1	445	48.561626942051	85
1	445	48.561626942051	86
1	461	50.357034167247	87
1	461	50.357034167247	88
1	461	50.357034167247	89
1	477	51.496669013788	90
1	477	51.496669013788	91
1	477	51.496669013788	92
1	493	52.520138204571	93
1	493	52.520138204571	94
1	493	52.520138204571	95
1	509	54.165869928998	96
1	509	54.165869928998	97
1	509	54.165869928998	98
1	525	55.556276047133	99
1	525	55.556276047133	100
1	525	55.556276047133	101
1	543	59.300172889199	102
1	543	59.300172889199	103
1	543	59.300172889199	104
1	559	60.485740163444	105
1	559	60.485740163444	106
1	559	60.485740163444	107
1	575	61.816606664702	108
1	575	61.816606664702	109
1	575	61.816606664702	110
1	591	63.03615810773	111
1	591	63.03615810773	112
1	591	63.03615810773	113
1	607	64.232858319177	114
1	607	64.232858319177	115
1	607	64.232858319177	116
1	623	65.717207480128	117
1	623	65.717207480128	118
1	623	65.717207480128	119
1	639	66.740189702891	120
1	639	66.740189702891	121
1	639	66.740189702891	122
1	655	67.960597909557	123
1	655	67.960597909557	124
1	655	67.960597909557	125
1	667	69.327924718368	126
1	667	69.327924718368	127
1	667	69.327924718368	128
1	683	71.104549142661	129
1	683	71.104549142661	130
1	683	71.104549142661	131
1	699	72.291047542358	132
1	699	72.291047542358	133
1	699	72.291047542358	134
1	715	74.268511403094	135
1	715	74.268511403094	136
1	715	74.268511403094	137
1	731	75.874731181888	138
1	731	75.874731181888	139
1	731	75.874731181888	140
1	747	77.037486493569	141
1	747	77.037486493569	142
1	747	77.037486493569	143
1	763	78.746565027171	144
1	763	78.746565027171	145
1	763	78.746565027171	146
1	779	80.541873974572	147
1	779	80.541873974572	148
1	779	80.541873974572	149
1	799	85.293889950248	150
1	799	85.293889950248	151
1	799	85.293889950248	152
1	815	86.324420403559	153
1	815	86.324420403559	154
1	815	86.324420403559	155
1	831	87.533351358685	156
1	831	87.533351358685	157
1	831	87.533351358685	158
1	847	88.622029677987	159
1	847	88.622029677987	160
1	847	88.622029677987	161
1	863	90.608434084664	162
1	863	90.608434084664	163
1	863	90.608434084664	164
1	881	93.678594112921	165
1	881	93.678594112921	166
1	881	93.678594112921	167
1	897	95.615288794355	168
1	897	95.615288794355	169
1	897	95.615288794355	170
1	913	96.969251601849	171
1	913	96.969251601849	172
1	913	96.969251601849	173
1	931	100.216537550481	174
1	931	100.216537550481	175
1	931	100.216537550481	176
1	947	102.025007835025	177
1	947	102.025007835025	178
1	947	102.025007835025	179
1	963	103.301363735203	180
1	963	103.301363735203	181
1	963	103.301363735203	182
1	979	104.42669835023	183
1	979	104.42669835023	184
1	979	104.42669835023	185
1	995	106.268843652609	186
1	995	106.268843652609	187
1	995	106.268843652609	188
1	1011	107.771940988936	189
1	1011	107.771940988936	190
1	1011	107.771940988936	191
1	1027	109.425430672051	192
1	1027	109.425430672051	193
1	1027	109.425430672051	194
1	1043	110.964535553999	195
1	1043	110.964535553999	196
1	1043	110.964535553999	197
1	1061	113.672148127404	198
1	1061	113.672148127404	199
1	1061	113.672148127404	200
1	1077	115.48415487457	201
1	1077	115.48415487457	202
1	1077	115.48415487457	203
1	1093	116.526876357327	204
1	1093	116.526876357327	205
1	1093	116.526876357327	206
1	1109	118.074217096012	207
1	1109	118.074217096012	208
1	1109	118.074217096012	209
1	1125	119.494539246091	210
1	1125	119.494539246091	211
1	1125	119.494539246091	212
1	1141	121.227779762408	213
1	1141	121.227779762408	214
1	1141	121.227779762408	215
1	1157	123.100114003923	216
1	1157	123.100114003923	217
1	1157	123.100114003923	218
1	1173	124.246080642399	219
1	1173	124.246080642399	220
1	1173	124.246080642399	221
1	1189	125.877998128934	222
1	1189	125.877998128934	223
1	1189	125.877998128934	224
1	1205	127.588647175057	225
1	1205	127.588647175057	226
1	1205	127.588647175057	227
1	1221	128.774486628069	228
1	1221	128.774486628069	229
1	1221	128.774486628069	230
1	1237	130.060446298076	231
1	1237	130.060446298076	232
1	1237	130.060446298076	233
1	1253	132.043858864936	234
1	1253	132.043858864936	235
1	1253	132.043858864936	236
1	1266	133.546394833744	237
1	1266	133.546394833744	238
1	1266	133.546394833744	239
1	1282	134.867132701168	240
1	1282	134.867132701168	241
1	1282	134.867132701168	242
1	1300	137.915078262263	243
1	1300	137.915078262263	244
1	1300	137.915078262263	245
1	1320	141.918375400832	246
1	1320	141.918375400832	247
1	1320	141.918375400832	248
1	1336	143.008929885147	249
1	1336	143.008929885147	250
1	1336	143.008929885147	251
1	1352	144.466562550969	252
1	1352	144.466562550969	253
1	1352	144.466562550969	254
1	1368	145.940082684357	255
1	1368	145.940082684357	256
1	1368	145.940082684357	257
1	1384	147.562262347811	258
1	1384	147.562262347811	259
1	1384	147.562262347811	260
1	1402	150.48851213799	261
1	1402	150.48851213799	262
1	1402	150.48851213799	263
1	1418	151.521401662674	264
1	1418	151.521401662674	265
1	1418	151.521401662674	266
1	1434	152.757821498455	267
1	1434	152.757821498455	268
1	1434	152.757821498455	269
1	1454	158.295461662343	270
1	1454	158.295461662343	271
1	1454	158.295461662343	272
1	1470	159.817753429992	273
1	1470	159.817753429992	274
1	1470	159.817753429992	275
1	1486	161.138222205862	276
1	1486	161.138222205862	277
1	1486	161.138222205862	278
1	1502	162.553965021524	279
1	1502	162.553965021524	280
1	1502	162.553965021524	281
1	1518	164.512069958759	282
1	1518	164.512069958759	283
1	1518	164.512069958759	284
1	1529	167.068608791904	285
1	1529	167.068608791904	286
1	1529	167.068608791904	287
1	1545	168.737889511133	288
1	1545	168.737889511133	289
1	1545	168.737889511133	290
1	1561	170.169415252899	291
1	1561	170.169415252899	292
1	1561	170.169415252899	293
1	1577	171.406091244946	294
1	1577	171.406091244946	295
1	1577	171.406091244946	296
1	1593	172.479611008102	297
1	1593	172.479611008102	298
1	1593	172.479611008102	299
1	1609	173.717255217603	300
1	1609	173.717255217603	301
1	1609	173.717255217603	302
1	1625	175.239846980879	303
1	1625	175.239846980879	304
1	1625	175.239846980879	305
1	1641	176.520920964867	306
1	1641	176.520920964867	307
1	1641	176.520920964867	308
1	1657	177.666491338141	309
1	1657	177.666491338141	310
1	1657	177.666491338141	311
1	1673	179.50259993704	312
1	1673	179.50259993704	313
1	1673	179.50259993704	314
1	1689	180.893608601315	315
1	1689	180.893608601315	316
1	1689	180.893608601315	317
1	1705	182.697589830182	318
1	1705	182.697589830182	319
1	1705	182.697589830182	320
1	1721	183.794317780394	321
1	1721	183.794317780394	322
1	1721	183.794317780394	323
1	1739	186.194382128859	324
1	1739	186.194382128859	325
1	1739	186.194382128859	326
1	1757	188.763992200472	327
1	1757	188.763992200472	328
1	1757	188.763992200472	329
1	1773	190.069161006328	330
1	1773	190.069161006328	331
1	1773	190.069161006328	332
1	1789	191.333755206678	333
1	1789	191.333755206678	334
1	1789	191.333755206678	335
1	1805	192.376995189494	336
1	1805	192.376995189494	337
1	1805	192.376995189494	338
1	1821	193.746718297928	339
1	1821	193.746718297928	340
1	1821	193.746718297928	341
1	1837	195.404210392056	342
1	1837	195.404210392056	343
1	1837	195.404210392056	344
1	1853	197.244338016027	345
1	1853	197.244338016027	346
1	1853	197.244338016027	347
1	1869	198.913857421524	348
1	1869	198.913857421524	349
1	1869	198.913857421524	350
1	1885	200.2762108176	351
1	1885	200.2762108176	352
1	1885	200.2762108176	353
1	1901	201.888177913819	354
1	1901	201.888177913819	355
1	1901	201.888177913819	356
1	1917	203.729602039386	357
1	1917	203.729602039386	358
1	1917	203.729602039386	359
1	1933	204.819945116565	360
1	1933	204.819945116565	361
1	1933	204.819945116565	362
1	1949	206.743232587899	363
1	1949	206.743232587899	364
1	1949	206.743232587899	365
1	1962	207.821752382327	366
1	1962	207.821752382327	367
1	1962	207.821752382327	368
1	1978	209.006893857081	369
1	1978	209.006893857081	370
1	1978	209.006893857081	371
1	1994	210.54993497309	372
1	1994	210.54993497309	373
1	1994	210.54993497309	374
1	2010	211.907488135748	375
1	2010	211.907488135748	376
1	2010	211.907488135748	377
1	2026	213.885563845279	378
1	2026	213.885563845279	379
1	2026	213.885563845279	380
1	2042	215.808976111632	381
1	2042	215.808976111632	382
1	2042	215.808976111632	383
1	2058	217.418595880751	384
1	2058	217.418595880751	385
1	2058	217.418595880751	386
1	2074	219.016791300434	387
1	2074	219.016791300434	388
1	2074	219.016791300434	389
1	2083	220.858189353716	390
1	2083	220.858189353716	391
1	2083	220.858189353716	392
1	2099	222.798077777239	393
1	2099	222.798077777239	394
1	2099	222.798077777239	395
1	2115	224.652153562567	396
1	2115	224.652153562567	397
1	2115	224.652153562567	398
1	2131	225.772044363666	399
1	2131	225.772044363666	400
1	2131	225.772044363666	401
1	2147	226.800913386114	402
1	2147	226.800913386114	403
1	2147	226.800913386114	404
1	2163	228.057031613142	405
1	2163	228.057031613142	406
1	2163	228.057031613142	407
1	2179	229.616398357718	408
1	2179	229.616398357718	409
1	2179	229.616398357718	410
1	2195	230.654813307759	411
1	2195	230.654813307759	412
1	2195	230.654813307759	413
1	2213	233.485794988508	414
1	2213	233.485794988508	415
1	2213	233.485794988508	416
1	2229	235.062417485957	417
1	2229	235.062417485957	418
1	2229	235.062417485957	419
1	2245	236.172577030937	420
1	2245	236.172577030937	421
1	2245	236.172577030937	422
1	2261	238.108153868028	423
1	2261	238.108153868028	424
1	2261	238.108153868028	425
1	2277	239.531495093614	426
1	2277	239.531495093614	427
1	2277	239.531495093614	428
2	9	1.331444330932	0
2	9	1.331444330932	1
2	26	3.253718717114	2
2	26	3.253718717114	3
2	41	4.86482266332	4
2	41	4.86482266332	5
2	58	6.276320865775	6
2	58	6.276320865775	7
2	73	7.854826332645	8
2	73	7.854826332645	9
2	89	9.683946934456	10
2	89	9.683946934456	11
2	109	10.881487924776	12
2	109	10.881487924776	13
2	121	12.681376155864	14
2	121	12.681376155864	15
2	137	14.552310782711	16
2	137	14.552310782711	17
2	153	15.894159622606	18
2	153	15.894159622606	19
2	169	17.26129961807	20
2	169	17.26129961807	21
2	185	18.655808435131	22
2	185	18.655808435131	23
2	201	20.002996938053	24
2	201	20.002996938053	25
2	217	21.786816163494	26
2	217	21.786816163494	27
2	233	23.151095424756	28
2	233	23.151095424756	29
2	250	25.097191738524	30
2	250	25.097191738524	31
2	268	27.880496616449	32
2	268	27.880496616449	33
2	286	29.763244592295	34
2	286	29.763244592295	35
2	310	35.364954910045	36
2	310	35.364954910045	37
2	325	37.303197962134	38
2	325	37.303197962134	39
2	342	38.338823914096	40
2	342	38.338823914096	41
2	357	40.221392403771	42
2	357	40.221392403771	43
2	374	41.249722374751	44
2	374	41.249722374751	45
2	385	42.372481178021	46
2	385	42.372481178021	47
2	402	44.201722372026	48
2	402	44.201722372026	49
2	418	45.990283601132	50
2	418	45.990283601132	51
2	433	47.503083863806	52
2	433	47.503083863806	53
2	450	48.572760727798	54
2	450	48.572760727798	55
2	465	50.372062974247	56
2	465	50.372062974247	57
2	481	51.51221398965	58
2	481	51.51221398965	59
2	497	52.544507146597	60
2	497	52.544507146597	61
2	513	54.176695467802	62
2	513	54.176695467802	63
2	532	55.578769988319	64
2	532	55.578769988319	65
2	548	59.319561580242	66
2	548	59.319561580242	67
2	564	60.516556107206	68
2	564	60.516556107206	69
2	579	61.832265346901	70
2	579	61.832265346901	71
2	595	63.046309814017	72
2	595	63.046309814017	73
2	612	64.255914713427	74
2	612	64.255914713427	75
2	627	65.734199268988	76
2	627	65.734199268988	77
2	650	66.801219327221	78
2	650	66.801219327221	79
2	659	67.972862513183	80
2	659	67.972862513183	81
2	671	69.340232666298	82
2	671	69.340232666298	83
2	690	71.126236868486	84
2	690	71.126236868486	85
2	710	72.327610248087	86
2	710	72.327610248087	87
2	720	74.281321700748	88
2	720	74.281321700748	89
2	735	75.890326794676	90
2	735	75.890326794676	91
2	751	77.048135137346	92
2	751	77.048135137346	93
2	767	78.757575289759	94
2	767	78.757575289759	95
2	783	80.560379292115	96
2	783	80.560379292115	97
2	803	85.311643529631	98
2	803	85.311643529631	99
2	819	86.334769170116	100
2	819	86.334769170116	101
2	842	87.609095064052	102
2	842	87.609095064052	103
2	854	88.645457079681	104
2	854	88.645457079681	105
2	867	90.628743484456	106
2	867	90.628743484456	107
2	886	93.699967415974	108
2	886	93.699967415974	109
2	902	95.629953236812	110
2	902	95.629953236812	111
2	921	97.007452188048	112
2	921	97.007452188048	113
2	942	100.25309785148	114
2	942	100.25309785148	115
2	958	102.084499824588	116
2	958	102.084499824588	117
2	968	103.320019758018	118
2	968	103.320019758018	119
2	990	104.469418698791	120
2	990	104.469418698791	121
2	999	106.281944154268	122
2	999	106.281944154268	123
2	1015	107.783780855821	124
2	1015	107.783780855821	125
2	1031	109.440941055233	126
2	1031	109.440941055233	127
2	1047	110.984970248201	128
2	1047	110.984970248201	129
2	1072	113.729942428513	130
2	1072	113.729942428513	131
2	1081	115.494190672961	132
2	1081	115.494190672961	133
2	1098	116.543028446886	134
2	1098	116.543028446886	135
2	1114	118.094023052791	136
2	1114	118.094023052791	137
2	1130	119.510421386379	138
2	1130	119.510421386379	139
2	1146	121.241671475098	140
2	1146	121.241671475098	141
2	1164	123.12380064121	142
2	1164	123.12380064121	143
2	1178	124.262285886746	144
2	1178	124.262285886746	145
2	1193	125.892837193634	146
2	1193	125.892837193634	147
2	1209	127.603436670741	148
2	1209	127.603436670741	149
2	1225	128.790708166487	150
2	1225	128.790708166487	151
2	1244	130.089949841231	152
2	1244	130.089949841231	153
2	1273	133.569014155342	154
2	1273	133.569014155342	155
2	1287	134.888900819072	156
2	1287	134.888900819072	157
2	1304	137.939076379184	158
2	1304	137.939076379184	159
2	1325	141.938724362387	160
2	1325	141.938724362387	161
2	1344	143.064812713733	162
2	1344	143.064812713733	163
2	1357	144.487139533458	164
2	1357	144.487139533458	165
2	1373	145.963840845586	166
2	1373	145.963840845586	167
2	1388	147.572665003917	168
2	1388	147.572665003917	169
2	1407	150.512251755173	170
2	1407	150.512251755173	171
2	1422	151.532412419536	172
2	1422	151.532412419536	173
2	1439	152.776602184388	174
2	1439	152.776602184388	175
2	1465	158.362494845866	176
2	1465	158.362494845866	177
2	1474	159.827903130245	178
2	1474	159.827903130245	179
2	1490	161.151631491763	180
2	1490	161.151631491763	181
2	1506	162.571403165534	182
2	1506	162.571403165534	183
2	1522	164.55156321266	184
2	1522	164.55156321266	185
2	1533	167.078812338843	186
2	1533	167.078812338843	187
2	1549	168.759787809115	188
2	1549	168.759787809115	189
2	1565	170.189925834101	190
2	1565	170.189925834101	191
2	1582	171.428197102498	192
2	1582	171.428197102498	193
2	1598	172.498623947255	194
2	1598	172.498623947255	195
2	1613	173.734951376	196
2	1613	173.734951376	197
2	1629	175.250405221423	198
2	1629	175.250405221423	199
2	1645	176.531118286329	200
2	1645	176.531118286329	201
2	1662	177.681092280549	202
2	1662	177.681092280549	203
2	1677	179.515934358578	204
2	1677	179.515934358578	205
2	1693	180.903991347738	206
2	1693	180.903991347738	207
2	1709	182.707611945007	208
2	1709	182.707611945007	209
2	1725	183.809042595149	210
2	1725	183.809042595149	211
2	1743	186.217288395612	212
2	1743	186.217288395612	213
2	1761	188.774283180673	214
2	1761	188.774283180673	215
2	1777	190.079572469936	216
2	1777	190.079572469936	217
2	1796	191.367815358423	218
2	1796	191.367815358423	219
2	1809	192.399866684924	220
2	1809	192.399866684924	221
2	1825	193.78066845757	222
2	1825	193.78066845757	223
2	1841	195.415312546988	224
2	1841	195.415312546988	225
2	1857	197.261805476106	226
2	1857	197.261805476106	227
2	1877	198.94857635368	228
2	1877	198.94857635368	229
2	1890	200.29129617525	230
2	1890	200.29129617525	231
2	1905	201.904270492555	232
2	1905	201.904270492555	233
2	1922	203.749416212873	234
2	1922	203.749416212873	235
2	1944	204.867928314634	236
2	1944	204.867928314634	237
2	1953	206.757868608809	238
2	1953	206.757868608809	239
2	1967	207.83968099898	240
2	1967	207.83968099898	241
2	1985	209.057800509833	242
2	1985	209.057800509833	243
2	2001	210.575251240071	244
2	2001	210.575251240071	245
2	2015	211.922767840066	246
2	2015	211.922767840066	247
2	2030	213.898885561404	248
2	2030	213.898885561404	249
2	2047	215.830415826456	250
2	2047	215.830415826456	251
2	2062	217.433170447461	252
2	2062	217.433170447461	253
2	2087	220.869595061519	254
2	2087	220.869595061519	255
2	2103	222.814861687136	256
2	2103	222.814861687136	257
2	2126	224.715656271585	258
2	2126	224.715656271585	259
2	2135	225.791984077167	260
2	2135	225.791984077167	261
2	2151	226.812768988128	262
2	2151	226.812768988128	263
2	2167	228.067669435864	264
2	2167	228.067669435864	265
2	2186	229.64078117673	266
2	2186	229.64078117673	267
2	2200	230.690547784335	268
2	2200	230.690547784335	269
2	2224	233.538292374957	270
2	2224	233.538292374957	271
2	2240	235.127150384942	272
2	2240	235.127150384942	273
2	2249	236.186103444564	274
2	2249	236.186103444564	275
2	2265	238.121409888632	276
2	2265	238.121409888632	277
2	2282	239.546990139851	278
2	2282	239.546990139851	279
3	10	1.332888171871	0
3	10	1.332888171871	1
3	25	3.247957330242	2
3	25	3.247957330242	3
3	42	4.871184459035	4
3	42	4.871184459035	5
3	57	6.274504248875	6
3	57	6.274504248875	7
3	74	7.86193243456	8
3	74	7.86193243456	9
3	90	9.686742210764	10
3	90	9.686742210764	11
3	105	10.867022328705	12
3	105	10.867022328705	13
3	122	12.688275022088	14
3	122	12.688275022088	15
3	141	14.587324462594	16
3	141	14.587324462594	17
3	160	15.933263821849	18
3	160	15.933263821849	19
3	170	17.262812911607	20
3	170	17.262812911607	21
3	186	18.658502614561	22
3	186	18.658502614561	23
3	204	20.016609909516	24
3	204	20.016609909516	25
3	218	21.791532999875	26
3	218	21.791532999875	27
3	234	23.158920981393	28
3	234	23.158920981393	29
3	249	25.095160762148	30
3	249	25.095160762148	31
3	267	27.877484371917	32
3	267	27.877484371917	33
3	283	29.744592163414	34
3	283	29.744592163414	35
3	309	35.364812079407	36
3	309	35.364812079407	37
3	332	37.363467185876	38
3	332	37.363467185876	39
3	341	38.338449054432	40
3	341	38.338449054432	41
3	364	40.251992530003	42
3	364	40.251992530003	43
3	373	41.243023609623	44
3	373	41.243023609623	45
3	386	42.379996915099	46
3	386	42.379996915099	47
3	401	44.20162424715	48
3	401	44.20162424715	49
3	417	45.98269758406	50
3	417	45.98269758406	51
3	437	47.514509442617	52
3	437	47.514509442617	53
3	449	48.572067809365	54
3	449	48.572067809365	55
3	472	50.407259706689	56
3	472	50.407259706689	57
3	488	51.553821522759	58
3	488	51.553821522759	59
3	498	52.545756298246	60
3	498	52.545756298246	61
3	514	54.177802429834	62
3	514	54.177802429834	63
3	529	55.568207030211	64
3	529	55.568207030211	65
3	547	59.317396631933	66
3	547	59.317396631933	67
3	563	60.508970347179	68
3	563	60.508970347179	69
3	586	61.877167741527	70
3	586	61.877167741527	71
3	596	63.051897002469	72
3	596	63.051897002469	73
3	611	64.247498871499	74
3	611	64.247498871499	75
3	628	65.738236675678	76
3	628	65.738236675678	77
3	643	66.753033921832	78
3	643	66.753033921832	79
3	660	67.974828804091	80
3	660	67.974828804091	81
3	674	69.36528205117	82
3	674	69.36528205117	83
3	687	71.115794632996	84
3	687	71.115794632996	85
3	703	72.304978809807	86
3	703	72.304978809807	87
3	719	74.279955035936	88
3	719	74.279955035936	89
3	736	75.900139533214	90
3	736	75.900139533214	91
3	752	77.049653068984	92
3	752	77.049653068984	93
3	771	78.78990981206	94
3	771	78.78990981206	95
3	784	80.560962572268	96
3	784	80.560962572268	97
3	804	85.312164908497	98
3	804	85.312164908497	99
3	822	86.350836668647	100
3	822	86.350836668647	101
3	835	87.567378718559	102
3	835	87.567378718559	103
3	851	88.632311042419	104
3	851	88.632311042419	105
3	871	90.646767242798	106
3	871	90.646767242798	107
3	885	93.69318915408	108
3	885	93.69318915408	109
3	901	95.625919830018	110
3	901	95.625919830018	111
3	917	96.983891580421	112
3	917	96.983891580421	113
3	935	100.228220973965	114
3	935	100.228220973965	115
3	951	102.062209581437	116
3	951	102.062209581437	117
3	967	103.313412400897	118
3	967	103.313412400897	119
3	983	104.43763102508	120
3	983	104.43763102508	121
3	1000	106.286890698068	122
3	1000	106.286890698068	123
3	1018	107.796777263659	124
3	1018	107.796777263659	125
3	1034	109.454145695354	126
3	1034	109.454145695354	127
3	1048	110.986350274508	128
3	1048	110.986350274508	129
3	1065	113.708703239279	130
3	1065	113.708703239279	131
3	1082	115.499220062509	132
3	1082	115.499220062509	133
3	1097	116.541185807874	134
3	1097	116.541185807874	135
3	1113	118.090620146645	136
3	1113	118.090620146645	137
3	1129	119.506165940214	138
3	1129	119.506165940214	139
3	1145	121.241358760351	140
3	1145	121.241358760351	141
3	1161	123.110169882899	142
3	1161	123.110169882899	143
3	1177	124.262172969015	144
3	1177	124.262172969015	145
3	1194	125.899457302091	146
3	1194	125.899457302091	147
3	1210	127.604178179828	148
3	1210	127.604178179828	149
3	1232	128.832366902166	150
3	1232	128.832366902166	151
3	1241	130.0779923519	152
3	1241	130.0779923519	153
3	1257	132.063525051851	154
3	1257	132.063525051851	155
3	1270	133.558580755775	156
3	1270	133.558580755775	157
3	1286	134.880721537218	158
3	1286	134.880721537218	159
3	1305	137.939289803566	160
3	1305	137.939289803566	161
3	1324	141.933782965562	162
3	1324	141.933782965562	163
3	1340	143.036941348722	164
3	1340	143.036941348722	165
3	1356	144.483182720862	166
3	1356	144.483182720862	167
3	1372	145.962762418655	168
3	1372	145.962762418655	169
3	1389	147.579197780166	170
3	1389	147.579197780166	171
3	1406	150.507310949479	172
3	1406	150.507310949479	173
3	1423	151.53839878846	174
3	1423	151.53839878846	175
3	1438	152.768881698547	176
3	1438	152.768881698547	177
3	1458	158.307410387621	178
3	1458	158.307410387621	179
3	1475	159.830149164834	180
3	1475	159.830149164834	181
3	1493	161.161941347077	182
3	1493	161.161941347077	183
3	1507	162.573486327182	184
3	1507	162.573486327182	185
3	1540	167.131255132779	186
3	1540	167.131255132779	187
3	1552	168.787052924484	188
3	1552	168.787052924484	189
3	1566	170.190950627105	190
3	1566	170.190950627105	191
3	1581	171.420315791086	192
3	1581	171.420315791086	193
3	1597	172.495874147578	194
3	1597	172.495874147578	195
3	1614	173.741869437773	196
3	1614	173.741869437773	197
3	1630	175.255569501894	198
3	1630	175.255569501894	199
3	1646	176.536604152562	200
3	1646	176.536604152562	201
3	1661	177.677219816174	202
3	1661	177.677219816174	203
3	1678	179.525352739148	204
3	1678	179.525352739148	205
3	1694	180.90881288829	206
3	1694	180.90881288829	207
3	1710	182.711808596544	208
3	1710	182.711808596544	209
3	1726	183.810291405067	210
3	1726	183.810291405067	211
3	1750	186.24570557684	212
3	1750	186.24570557684	213
3	1764	188.784661803777	214
3	1764	188.784661803777	215
3	1780	190.090349449759	216
3	1780	190.090349449759	217
3	1793	191.347330008411	218
3	1793	191.347330008411	219
3	1816	192.441387175044	220
3	1816	192.441387175044	221
3	1826	193.788320046788	222
3	1826	193.788320046788	223
3	1844	195.426517303979	224
3	1844	195.426517303979	225
3	1858	197.264360233314	226
3	1858	197.264360233314	227
3	1873	198.925529348024	228
3	1873	198.925529348024	229
3	1889	200.287568424404	230
3	1889	200.287568424404	231
3	1912	201.968148818192	232
3	1912	201.968148818192	233
3	1921	203.741008252012	234
3	1921	203.741008252012	235
3	1937	204.833496650788	236
3	1937	204.833496650788	237
3	1966	207.835854638269	238
3	1966	207.835854638269	239
3	1982	209.021800428968	240
3	1982	209.021800428968	241
3	1998	210.563572741396	242
3	1998	210.563572741396	243
3	2014	211.918859938867	244
3	2014	211.918859938867	245
3	2034	213.922415285997	246
3	2034	213.922415285997	247
3	2046	215.821449960073	248
3	2046	215.821449960073	249
3	2063	217.434603836116	250
3	2063	217.434603836116	251
3	2078	219.031941722714	252
3	2078	219.031941722714	253
3	2090	220.881071735581	254
3	2090	220.881071735581	255
3	2104	222.815364577987	256
3	2104	222.815364577987	257
3	2119	224.662366979257	258
3	2119	224.662366979257	259
3	2136	225.794676441729	260
3	2136	225.794676441729	261
3	2152	226.813470978166	262
3	2152	226.813470978166	263
3	2174	228.115277973488	264
3	2174	228.115277973488	265
3	2183	229.630028401759	266
3	2183	229.630028401759	267
3	2199	230.68858642564	268
3	2199	230.68858642564	269
3	2217	233.502532717179	270
3	2217	233.502532717179	271
3	2233	235.080852132379	272
3	2233	235.080852132379	273
3	2252	236.205658600808	274
3	2252	236.205658600808	275
3	2266	238.122356948335	276
3	2266	238.122356948335	277
3	2281	239.543074869439	278
3	2281	239.543074869439	279
4	15	1.353446220298	0
4	15	1.353446220298	1
4	15	1.353446220298	2
4	31	3.270678213383	3
4	31	3.270678213383	4
4	31	3.270678213383	5
4	45	4.876057832631	6
4	45	4.876057832631	7
4	45	4.876057832631	8
4	63	6.289084546805	9
4	63	6.289084546805	10
4	63	6.289084546805	11
4	77	7.866434651242	12
4	77	7.866434651242	13
4	77	7.866434651242	14
4	95	9.69831146829	15
4	95	9.69831146829	16
4	95	9.69831146829	17
4	108	10.879519747345	18
4	108	10.879519747345	19
4	108	10.879519747345	20
4	125	12.697935089005	21
4	125	12.697935089005	22
4	125	12.697935089005	23
4	140	14.583893171564	24
4	140	14.583893171564	25
4	140	14.583893171564	26
4	156	15.920125083484	27
4	156	15.920125083484	28
4	156	15.920125083484	29
4	175	17.276605590077	30
4	175	17.276605590077	31
4	175	17.276605590077	32
4	189	18.668414111458	33
4	189	18.668414111458	34
4	189	18.668414111458	35
4	205	20.018463856122	36
4	205	20.018463856122	37
4	205	20.018463856122	38
4	223	21.819368002303	39
4	223	21.819368002303	40
4	223	21.819368002303	41
4	237	23.168783914783	42
4	237	23.168783914783	43
4	237	23.168783914783	44
4	255	25.108166723173	45
4	255	25.108166723173	46
4	255	25.108166723173	47
4	273	27.907864191528	48
4	273	27.907864191528	49
4	273	27.907864191528	50
4	287	29.767334257333	51
4	287	29.767334257333	52
4	287	29.767334257333	53
4	315	35.37514658664	54
4	315	35.37514658664	55
4	315	35.37514658664	56
4	328	37.322749695989	57
4	328	37.322749695989	58
4	328	37.322749695989	59
4	347	38.350876824398	60
4	347	38.350876824398	61
4	347	38.350876824398	62
4	360	40.235425184443	63
4	360	40.235425184443	64
4	360	40.235425184443	65
4	389	42.383182562286	66
4	389	42.383182562286	67
4	389	42.383182562286	68
4	407	44.226779255298	69
4	407	44.226779255298	70
4	407	44.226779255298	71
4	421	45.996911088636	72
4	421	45.996911088636	73
4	421	45.996911088636	74
4	436	47.514421675979	75
4	436	47.514421675979	76
4	436	47.514421675979	77
4	455	48.618564152995	78
4	455	48.618564152995	79
4	455	48.618564152995	80
4	468	50.39190717014	81
4	468	50.39190717014	82
4	468	50.39190717014	83
4	484	51.537430981488	84
4	484	51.537430981488	85
4	484	51.537430981488	86
4	503	52.556438682957	87
4	503	52.556438682957	88
4	503	52.556438682957	89
4	519	54.189009981853	90
4	519	54.189009981853	91
4	519	54.189009981853	92
4	533	55.578829057155	93
4	533	55.578829057155	94
4	533	55.578829057155	95
4	553	59.331945471228	96
4	553	59.331945471228	97
4	553	59.331945471228	98
4	567	60.522254098455	99
4	567	60.522254098455	100
4	567	60.522254098455	101
4	582	61.859688784004	102
4	582	61.859688784004	103
4	582	61.859688784004	104
4	601	63.085252204197	105
4	601	63.085252204197	106
4	601	63.085252204197	107
4	615	64.259058633695	108
4	615	64.259058633695	109
4	615	64.259058633695	110
4	633	65.750497926191	111
4	633	65.750497926191	112
4	633	65.750497926191	113
4	646	66.771172620983	114
4	646	66.771172620983	115
4	646	66.771172620983	116
4	677	69.375621329128	117
4	677	69.375621329128	118
4	677	69.375621329128	119
4	693	71.140681776853	120
4	693	71.140681776853	121
4	693	71.140681776853	122
4	706	72.314997654128	123
4	706	72.314997654128	124
4	706	72.314997654128	125
4	725	74.296478550063	126
4	725	74.296478550063	127
4	725	74.296478550063	128
4	739	75.902962251762	129
4	739	75.902962251762	130
4	739	75.902962251762	131
4	757	77.081893087836	132
4	757	77.081893087836	133
4	757	77.081893087836	134
4	770	78.787378599917	135
4	770	78.787378599917	136
4	770	78.787378599917	137
4	789	80.58139711164	138
4	789	80.58139711164	139
4	789	80.58139711164	140
4	809	85.329716239204	141
4	809	85.329716239204	142
4	809	85.329716239204	143
4	823	86.357110244887	144
4	823	86.357110244887	145
4	823	86.357110244887	146
4	838	87.595472813716	147
4	838	87.595472813716	148
4	838	87.595472813716	149
4	857	88.65916724824	150
4	857	88.65916724824	151
4	857	88.65916724824	152
4	870	90.640527848027	153
4	870	90.640527848027	154
4	870	90.640527848027	155
4	891	93.722716702837	156
4	891	93.722716702837	157
4	891	93.722716702837	158
4	905	95.638697558395	159
4	905	95.638697558395	160
4	905	95.638697558395	161
4	920	97.004551104712	162
4	920	97.004551104712	163
4	920	97.004551104712	164
4	938	100.242037727701	165
4	938	100.242037727701	166
4	938	100.242037727701	167
4	954	102.074257464296	168
4	954	102.074257464296	169
4	954	102.074257464296	170
4	971	103.323701629247	171
4	971	103.323701629247	172
4	971	103.323701629247	173
4	986	104.453602579282	174
4	986	104.453602579282	175
4	986	104.453602579282	176
4	1003	106.296119449373	177
4	1003	106.296119449373	178
4	1003	106.296119449373	179
4	1021	107.808119934961	180
4	1021	107.808119934961	181
4	1021	107.808119934961	182
4	1037	109.483058198611	183
4	1037	109.483058198611	184
4	1037	109.483058198611	185
4	1053	111.004936242017	186
4	1053	111.004936242017	187
4	1053	111.004936242017	188
4	1068	113.719787438725	189
4	1068	113.719787438725	190
4	1068	113.719787438725	191
4	1085	115.506542801629	192
4	1085	115.506542801629	193
4	1085	115.506542801629	194
4	1103	116.553870312739	195
4	1103	116.553870312739	196
4	1103	116.553870312739	197
4	1117	118.103756467976	198
4	1117	118.103756467976	199
4	1117	118.103756467976	200
4	1135	119.532221943731	201
4	1135	119.532221943731	202
4	1135	119.532221943731	203
4	1151	121.257311022886	204
4	1151	121.257311022886	205
4	1151	121.257311022886	206
4	1167	123.154568988605	207
4	1167	123.154568988605	208
4	1167	123.154568988605	209
4	1183	124.28110733883	210
4	1183	124.28110733883	211
4	1183	124.28110733883	212
4	1199	125.928636736278	213
4	1199	125.928636736278	214
4	1199	125.928636736278	215
4	1215	127.620576201724	216
4	1215	127.620576201724	217
4	1215	127.620576201724	218
4	1228	128.821845555848	219
4	1228	128.821845555848	220
4	1228	128.821845555848	221
4	1247	130.117442904659	222
4	1247	130.117442904659	223
4	1247	130.117442904659	224
4	1260	132.088742727476	225
4	1260	132.088742727476	226
4	1260	132.088742727476	227
4	1276	133.586114335904	228
4	1276	133.586114335904	229
4	1276	133.586114335904	230
4	1290	134.896696887139	231
4	1290	134.896696887139	232
4	1290	134.896696887139	233
4	1310	137.951243636822	234
4	1310	137.951243636822	235
4	1310	137.951243636822	236
4	1328	141.946924762135	237
4	1328	141.946924762135	238
4	1328	141.946924762135	239
4	1343	143.059025908726	240
4	1343	143.059025908726	241
4	1343	143.059025908726	242
4	1362	144.497417212452	243
4	1362	144.497417212452	244
4	1362	144.497417212452	245
4	1378	145.976168864857	246
4	1378	145.976168864857	247
4	1378	145.976168864857	248
4	1392	147.584673341451	249
4	1392	147.584673341451	250
4	1392	147.584673341451	251
4	1412	150.524093761445	252
4	1412	150.524093761445	253
4	1412	150.524093761445	254
4	1426	151.544880979486	255
4	1426	151.544880979486	256
4	1426	151.544880979486	257
4	1444	152.788029618963	258
4	1444	152.788029618963	259
4	1444	152.788029618963	260
4	1461	158.329202277599	261
4	1461	158.329202277599	262
4	1461	158.329202277599	263
4	1480	159.843244670757	264
4	1480	159.843244670757	265
4	1480	159.843244670757	266
4	1496	161.207039544203	267
4	1496	161.207039544203	268
4	1496	161.207039544203	269
4	1510	162.58275257686	270
4	1510	162.58275257686	271
4	1510	162.58275257686	272
4	1536	167.092895271261	273
4	1536	167.092895271261	274
4	1536	167.092895271261	275
4	1553	168.79014439818	276
4	1553	168.79014439818	277
4	1553	168.79014439818	278
4	1571	170.215259393154	279
4	1571	170.215259393154	280
4	1571	170.215259393154	281
4	1585	171.432433382581	282
4	1585	171.432433382581	283
4	1585	171.432433382581	284
4	1601	172.508616935117	285
4	1601	172.508616935117	286
4	1601	172.508616935117	287
4	1617	173.746178051055	288
4	1617	173.746178051055	289
4	1617	173.746178051055	290
4	1635	175.269098528778	291
4	1635	175.269098528778	292
4	1635	175.269098528778	293
4	1649	176.543969096199	294
4	1649	176.543969096199	295
4	1649	176.543969096199	296
4	1665	177.691060269385	297
4	1665	177.691060269385	298
4	1665	177.691060269385	299
4	1683	179.543208507931	300
4	1683	179.543208507931	301
4	1683	179.543208507931	302
4	1697	180.918039433787	303
4	1697	180.918039433787	304
4	1697	180.918039433787	305
4	1715	182.72220671392	306
4	1715	182.72220671392	307
4	1715	182.72220671392	308
4	1731	183.836918514581	309
4	1731	183.836918514581	310
4	1731	183.836918514581	311
4	1746	186.230589747668	312
4	1746	186.230589747668	313
4	1746	186.230589747668	314
4	1765	188.790937253499	315
4	1765	188.790937253499	316
4	1765	188.790937253499	317
4	1781	190.092517435845	318
4	1781	190.092517435845	319
4	1781	190.092517435845	320
4	1797	191.369769400036	321
4	1797	191.369769400036	322
4	1797	191.369769400036	323
4	1812	192.42059374841	324
4	1812	192.42059374841	325
4	1812	192.42059374841	326
4	1829	193.794521177363	327
4	1829	193.794521177363	328
4	1829	193.794521177363	329
4	1847	195.450617696078	330
4	1847	195.450617696078	331
4	1847	195.450617696078	332
4	1863	197.278189301993	333
4	1863	197.278189301993	334
4	1863	197.278189301993	335
4	1876	198.941814877379	336
4	1876	198.941814877379	337
4	1876	198.941814877379	338
4	1895	200.310478666593	339
4	1895	200.310478666593	340
4	1895	200.310478666593	341
4	1908	201.957305325857	342
4	1908	201.957305325857	343
4	1908	201.957305325857	344
4	1925	203.753059551945	345
4	1925	203.753059551945	346
4	1925	203.753059551945	347
4	1940	204.856235524168	348
4	1940	204.856235524168	349
4	1940	204.856235524168	350
4	1956	206.77531196903	351
4	1956	206.77531196903	352
4	1956	206.77531196903	353
4	1970	207.847766683139	354
4	1970	207.847766683139	355
4	1970	207.847766683139	356
4	1988	209.077872430958	357
4	1988	209.077872430958	358
4	1988	209.077872430958	359
4	2002	210.581910153422	360
4	2002	210.581910153422	361
4	2002	210.581910153422	362
4	2020	211.933330980411	363
4	2020	211.933330980411	364
4	2020	211.933330980411	365
4	2033	213.91661220656	366
4	2033	213.91661220656	367
4	2033	213.91661220656	368
4	2050	215.835284440524	369
4	2050	215.835284440524	370
4	2050	215.835284440524	371
4	2068	217.446663504077	372
4	2068	217.446663504077	373
4	2068	217.446663504077	374
4	2091	220.881684813586	375
4	2091	220.881684813586	376
4	2091	220.881684813586	377
4	2109	222.83646959872	378
4	2109	222.83646959872	379
4	2109	222.83646959872	380
4	2122	224.677985612263	381
4	2122	224.677985612263	382
4	2122	224.677985612263	383
4	2141	225.812748857997	384
4	2141	225.812748857997	385
4	2141	225.812748857997	386
4	2157	226.825641658015	387
4	2157	226.825641658015	388
4	2157	226.825641658015	389
4	2170	228.105202138932	390
4	2170	228.105202138932	391
4	2170	228.105202138932	392
4	2189	229.659535848033	393
4	2189	229.659535848033	394
4	2189	229.659535848033	395
4	2205	230.703084210927	396
4	2205	230.703084210927	397
4	2205	230.703084210927	398
4	2220	233.525017648092	399
4	2220	233.525017648092	400
4	2220	233.525017648092	401
4	2236	235.098204979926	402
4	2236	235.098204979926	403
4	2236	235.098204979926	404
4	2255	236.216579309384	405
4	2255	236.216579309384	406
4	2255	236.216579309384	407
4	2271	238.152262692662	408
4	2271	238.152262692662	409
4	2271	238.152262692662	410
4	2287	239.559026494591	411
4	2287	239.559026494591	412
4	2287	239.559026494591	413
5	18	1.363446220298	0
5	34	3.280678213383	1
5	50	4.886057832631	2
5	66	6.299084546805	3
5	82	7.876434651242	4
5	98	9.70831146829	5
5	112	10.889519747345	6
5	130	12.707935089005	7
5	144	14.593893171564	8
5	159	15.930125083484	9
5	178	17.286605590077	10
5	194	18.678414111458	11
5	210	20.028463856122	12
5	226	21.829368002303	13
5	242	23.178783914783	14
5	258	25.118166723173	15
5	292	29.777334257333	16
5	318	35.38514658664	17
5	331	37.332749695989	18
5	350	38.360876824398	19
5	363	40.245425184443	20
5	394	42.393182562286	21
5	410	44.236779255298	22
5	426	46.006911088636	23
5	440	47.524421675979	24
5	458	48.628564152995	25
5	471	50.40190717014	26
5	487	51.547430981488	27
5	506	52.566438682957	28
5	538	55.588829057155	29
5	556	59.341945471228	30
5	585	61.869688784004	31
5	620	64.269058633695	32
5	636	65.760497926191	33
5	680	69.385621329128	34
5	696	71.150681776853	35
5	709	72.324997654128	36
5	728	74.306478550063	37
5	744	75.912962251762	38
5	760	77.091893087836	39
5	774	78.797378599917	40
5	792	80.59139711164	41
5	812	85.339716239204	42
5	828	86.367110244887	43
5	841	87.605472813716	44
5	860	88.66916724824	45
5	874	90.650527848027	46
5	894	93.732716702837	47
5	910	95.648697558395	48
5	924	97.014551104712	49
5	941	100.252037727701	50
5	957	102.084257464296	51
5	976	103.333701629247	52
5	989	104.463602579282	53
5	1008	106.306119449373	54
5	1024	107.818119934961	55
5	1040	109.493058198611	56
5	1056	111.014936242017	57
5	1071	113.729787438725	58
5	1090	115.516542801629	59
5	1122	118.113756467976	60
5	1138	119.542221943731	61
5	1154	121.267311022886	62
5	1170	123.164568988605	63
5	1186	124.29110733883	64
5	1202	125.938636736278	65
5	1218	127.630576201724	66
5	1231	128.831845555848	67
5	1250	130.127442904659	68
5	1263	132.098742727476	69
5	1279	133.596114335904	70
5	1295	134.906696887139	71
5	1333	141.956924762135	72
5	1347	143.069025908726	73
5	1365	144.507417212452	74
5	1381	145.986168864857	75
5	1397	147.594673341451	76
5	1415	150.534093761445	77
5	1447	152.798029618963	78
5	1464	158.339202277599	79
5	1483	159.853244670757	80
5	1499	161.217039544203	81
5	1515	162.59275257686	82
5	1539	167.102895271261	83
5	1558	168.80014439818	84
5	1574	170.225259393154	85
5	1606	172.518616935117	86
5	1622	173.756178051055	87
5	1638	175.279098528778	88
5	1654	176.553969096199	89
5	1670	177.701060269385	90
5	1686	179.553208507931	91
5	1702	180.928039433787	92
5	1718	182.73220671392	93
5	1734	183.846918514581	94
5	1749	186.240589747668	95
5	1802	191.379769400036	96
5	1815	192.43059374841	97
5	1850	195.460617696078	98
5	1866	197.288189301993	99
5	1880	198.951814877379	100
5	1898	200.320478666593	101
5	1911	201.967305325857	102
5	1930	203.763059551945	103
5	1943	204.866235524168	104
5	1959	206.78531196903	105
5	1975	207.857766683139	106
5	1991	209.087872430958	107
5	2007	210.591910153422	108
5	2037	213.92661220656	109
5	2055	215.845284440524	110
5	2071	217.456663504077	111
5	2096	220.891684813586	112
5	2112	222.84646959872	113
5	2144	225.822748857997	114
5	2160	226.835641658015	115
5	2173	228.115202138932	116
5	2192	229.669535848033	117
5	2208	230.713084210927	118
5	2223	233.535017648092	119
5	2239	235.108204979926	120
5	2258	236.226579309384	121
5	2274	238.162262692662	122
5	2290	239.569026494591	123

