version 2
run General-2-20231008-09:22:15-19267
attr configname General
attr datetime 20231008-09:22:15
attr experiment General
attr inifile omnetpp.ini
attr iterationvars ""
attr iterationvarsf ""
attr measurement ""
attr network Network3
attr processid 19267
attr repetition 2
attr replication #2
attr resultdir results
attr runnumber 2
attr seedset 2
param Network3.node[*].transmissionTime "uniform(1s, 2s)"
param Network3.node[*].delayTime "uniform(0.01s, 0.2s)"
param Network3.node[*].processingTime exponential(0.01s)
param Network3.node[0].lossProbability 0
param Network3.node[1].lossProbability 0.75
param Network3.node[2].lossProbability 0.75
param Network3.node[3].lossProbability "0.75 / 2"
param Network3.node[4].lossProbability "0.75 / 2"
param Network3.node[6].lossProbability "0.75 * 2"
param Network3.node[7].lossProbability "0.75 * 2"
param Network3.node[5].lossProbability "0.75 * 3"

vector 0 Network3.node[0] txVector ETV
vector 1 Network3.node[2] txVector ETV
vector 2 Network3.node[4] txVector ETV
vector 3 Network3.node[1] txVector ETV
vector 4 Network3.node[3] txVector ETV
0	1	0.092839031499	0
0	1	0.092839031499	1
0	11	1.277921112972	2
0	11	1.277921112972	3
0	14	2.432347788495	4
0	14	2.432347788495	5
0	17	4.051618758841	6
0	17	4.051618758841	7
0	20	5.536794673671	8
0	20	5.536794673671	9
0	35	7.157928506863	10
0	35	7.157928506863	11
0	46	8.565236339365	12
0	46	8.565236339365	13
0	49	9.661767260889	14
0	49	9.661767260889	15
0	52	11.156057028817	16
0	52	11.156057028817	17
0	55	12.382069031959	18
0	55	12.382069031959	19
0	58	14.149560208451	20
0	58	14.149560208451	21
0	61	15.499386493834	22
0	61	15.499386493834	23
0	64	16.866857862817	24
0	64	16.866857862817	25
0	67	18.507264589211	26
0	67	18.507264589211	27
0	70	20.300354332216	28
0	70	20.300354332216	29
0	76	21.687246982725	30
0	76	21.687246982725	31
0	79	22.849545585941	32
0	79	22.849545585941	33
0	90	24.701826619002	34
0	90	24.701826619002	35
0	104	26.129372583254	36
0	104	26.129372583254	37
0	111	27.495714979031	38
0	111	27.495714979031	39
0	114	29.242346392031	40
0	114	29.242346392031	41
0	132	30.309490760341	42
0	132	30.309490760341	43
0	150	31.666115040676	44
0	150	31.666115040676	45
0	153	33.402862101578	46
0	153	33.402862101578	47
0	156	35.13136060398	48
0	156	35.13136060398	49
0	159	36.92876554748	50
0	159	36.92876554748	51
0	169	38.290792954173	52
0	169	38.290792954173	53
0	183	40.205268526003	54
0	183	40.205268526003	55
0	189	41.852282751836	56
0	189	41.852282751836	57
0	199	43.081668715943	58
0	199	43.081668715943	59
0	214	45.049959288231	60
0	214	45.049959288231	61
0	232	46.968417929039	62
0	232	46.968417929039	63
0	250	48.591981110648	64
0	250	48.591981110648	65
0	253	49.866040367652	66
0	253	49.866040367652	67
0	256	50.866163951829	68
0	256	50.866163951829	69
0	259	52.161336257607	70
0	259	52.161336257607	71
0	265	53.676195424767	72
0	265	53.676195424767	73
0	268	55.206016600616	74
0	268	55.206016600616	75
0	271	56.677426459053	76
0	271	56.677426459053	77
0	285	58.547135080229	78
0	285	58.547135080229	79
0	288	60.383652731562	80
0	288	60.383652731562	81
0	291	62.125407775883	82
0	291	62.125407775883	83
0	302	63.748680108944	84
0	302	63.748680108944	85
0	317	64.779269586802	86
0	317	64.779269586802	87
0	320	66.229296308961	88
0	320	66.229296308961	89
0	323	68.10556276354	90
0	323	68.10556276354	91
0	326	69.108145338036	92
0	326	69.108145338036	93
0	329	70.398572083814	94
0	329	70.398572083814	95
0	340	72.390556332907	96
0	340	72.390556332907	97
0	351	73.89817381559	98
0	351	73.89817381559	99
0	369	74.908145721555	100
0	369	74.908145721555	101
0	380	76.854839845114	102
0	380	76.854839845114	103
0	383	78.795290340921	104
0	383	78.795290340921	105
0	389	80.149462763472	106
0	389	80.149462763472	107
0	392	81.217198002637	108
0	392	81.217198002637	109
0	395	83.14309959977	110
0	395	83.14309959977	111
0	413	84.912836567984	112
0	413	84.912836567984	113
0	427	86.344050471923	114
0	427	86.344050471923	115
0	430	87.412649658994	116
0	430	87.412649658994	117
0	436	89.280031200518	118
0	436	89.280031200518	119
0	442	90.849171734435	120
0	442	90.849171734435	121
0	456	92.054965412264	122
0	456	92.054965412264	123
0	467	93.935587473699	124
0	467	93.935587473699	125
0	470	95.534133855273	126
0	470	95.534133855273	127
0	476	96.948613104197	128
0	476	96.948613104197	129
0	490	98.335513449293	130
0	490	98.335513449293	131
0	496	100.027912692186	132
0	496	100.027912692186	133
0	507	101.818156490587	134
0	507	101.818156490587	135
0	510	103.209130752618	136
0	510	103.209130752618	137
0	513	104.505643504924	138
0	513	104.505643504924	139
0	516	106.479194821111	140
0	516	106.479194821111	141
0	519	107.678093916523	142
0	519	107.678093916523	143
0	522	109.102503281339	144
0	522	109.102503281339	145
0	529	110.189882454715	146
0	529	110.189882454715	147
0	532	111.526175425641	148
0	532	111.526175425641	149
0	546	113.411439103793	150
0	546	113.411439103793	151
0	553	114.925841159906	152
0	553	114.925841159906	153
0	571	116.514938269762	154
0	571	116.514938269762	155
0	574	117.533467863241	156
0	574	117.533467863241	157
0	577	119.156852579463	158
0	577	119.156852579463	159
0	580	120.210342753932	160
0	580	120.210342753932	161
0	590	122.103508939289	162
0	590	122.103508939289	163
0	593	123.364228957121	164
0	593	123.364228957121	165
0	596	124.613798645113	166
0	596	124.613798645113	167
0	602	125.628854779547	168
0	602	125.628854779547	169
0	605	127.001747663619	170
0	605	127.001747663619	171
0	608	128.475640570533	172
0	608	128.475640570533	173
0	611	130.418061183321	174
0	611	130.418061183321	175
0	614	131.551224214977	176
0	614	131.551224214977	177
0	617	132.677384322763	178
0	617	132.677384322763	179
0	635	134.514127852183	180
0	635	134.514127852183	181
0	638	136.382046321195	182
0	638	136.382046321195	183
0	641	137.916148016949	184
0	641	137.916148016949	185
0	644	139.364561477697	186
0	644	139.364561477697	187
0	647	141.307732200737	188
0	647	141.307732200737	189
0	653	142.634603963022	190
0	653	142.634603963022	191
0	656	143.999869996936	192
0	656	143.999869996936	193
0	659	145.170555525714	194
0	659	145.170555525714	195
0	662	146.563959748506	196
0	662	146.563959748506	197
0	676	147.626861284276	198
0	676	147.626861284276	199
0	679	149.041529543021	200
0	679	149.041529543021	201
0	682	150.690308155514	202
0	682	150.690308155514	203
0	696	151.901905735045	204
0	696	151.901905735045	205
0	703	153.288281457986	206
0	703	153.288281457986	207
0	721	154.939775297906	208
0	721	154.939775297906	209
0	724	156.571042695105	210
0	724	156.571042695105	211
0	727	158.249464201298	212
0	727	158.249464201298	213
0	730	159.730187423317	214
0	730	159.730187423317	215
0	733	161.505985340359	216
0	733	161.505985340359	217
0	751	163.45085993458	218
0	751	163.45085993458	219
0	754	164.648859825474	220
0	754	164.648859825474	221
0	769	165.957468752074	222
0	769	165.957468752074	223
0	775	167.417159048398	224
0	775	167.417159048398	225
0	778	168.716680316976	226
0	778	168.716680316976	227
0	793	170.519856186374	228
0	793	170.519856186374	229
0	799	171.904765129578	230
0	799	171.904765129578	231
0	802	173.393421661597	232
0	802	173.393421661597	233
0	805	174.956279063154	234
0	805	174.956279063154	235
0	808	176.41443832314	236
0	808	176.41443832314	237
0	811	177.715191389456	238
0	811	177.715191389456	239
0	829	179.618581053357	240
0	829	179.618581053357	241
0	832	180.707230363994	242
0	832	180.707230363994	243
0	842	182.079650882886	244
0	842	182.079650882886	245
0	845	183.99166965999	246
0	845	183.99166965999	247
0	856	185.971833230949	248
0	856	185.971833230949	249
0	866	187.070383242819	250
0	866	187.070383242819	251
0	869	189.011565740708	252
0	869	189.011565740708	253
0	872	190.175998242128	254
0	872	190.175998242128	255
0	890	192.137388432886	256
0	890	192.137388432886	257
0	893	193.345363451423	258
0	893	193.345363451423	259
0	896	194.745507991429	260
0	896	194.745507991429	261
0	899	196.083227613497	262
0	899	196.083227613497	263
0	913	197.205265532502	264
0	913	197.205265532502	265
0	923	198.361850580222	266
0	923	198.361850580222	267
0	926	199.819411155091	268
0	926	199.819411155091	269
0	929	201.698698109969	270
0	929	201.698698109969	271
0	943	203.521499677583	272
0	943	203.521499677583	273
0	946	204.827008032262	274
0	946	204.827008032262	275
0	957	206.739685185974	276
0	957	206.739685185974	277
0	972	207.763629880989	278
0	972	207.763629880989	279
0	975	209.357370250881	280
0	975	209.357370250881	281
0	985	210.608154107373	282
0	985	210.608154107373	283
0	988	211.869670312175	284
0	988	211.869670312175	285
0	991	213.566291430288	286
0	991	213.566291430288	287
0	994	215.029528811828	288
0	994	215.029528811828	289
0	1001	216.69317006741	290
0	1001	216.69317006741	291
0	1004	218.40065015808	292
0	1004	218.40065015808	293
0	1022	219.696855112233	294
0	1022	219.696855112233	295
0	1025	221.540947201217	296
0	1025	221.540947201217	297
0	1043	223.081915298265	298
0	1043	223.081915298265	299
0	1046	224.346454909092	300
0	1046	224.346454909092	301
0	1049	226.039628167657	302
0	1049	226.039628167657	303
0	1052	227.630352982107	304
0	1052	227.630352982107	305
0	1055	229.442870677934	306
0	1055	229.442870677934	307
0	1058	231.00913325606	308
0	1058	231.00913325606	309
0	1076	232.023037079043	310
0	1076	232.023037079043	311
0	1086	233.265996170949	312
0	1086	233.265996170949	313
0	1097	234.966193916762	314
0	1097	234.966193916762	315
0	1100	236.284906961975	316
0	1100	236.284906961975	317
0	1103	237.421869314063	318
0	1103	237.421869314063	319
0	1113	239.365536653457	320
0	1113	239.365536653457	321
1	4	0.110816610738	0
1	4	0.110816610738	1
1	73	20.357296528891	2
1	73	20.357296528891	3
1	101	24.75309425817	4
1	101	24.75309425817	5
1	117	29.287607304655	6
1	117	29.287607304655	7
1	144	30.360326849455	8
1	144	30.360326849455	9
1	162	36.939024377877	10
1	162	36.939024377877	11
1	172	38.305114206218	12
1	172	38.305114206218	13
1	186	40.225983723792	14
1	186	40.225983723792	15
1	192	41.872606558127	16
1	192	41.872606558127	17
1	217	45.064209405975	18
1	217	45.064209405975	19
1	236	46.987364624569	20
1	236	46.987364624569	21
1	262	52.174673598779	22
1	262	52.174673598779	23
1	274	56.688995457771	24
1	274	56.688995457771	25
1	354	73.908282412352	26
1	354	73.908282412352	27
1	386	78.808620744702	28
1	386	78.808620744702	29
1	406	83.18377656649	30
1	406	83.18377656649	31
1	416	84.94130927142	32
1	416	84.94130927142	33
1	433	87.442384463824	34
1	433	87.442384463824	35
1	439	89.290802827862	36
1	439	89.290802827862	37
1	453	90.898441935429	38
1	453	90.898441935429	39
1	473	95.545743484046	40
1	473	95.545743484046	41
1	479	96.959034552857	42
1	479	96.959034552857	43
1	493	98.355761025573	44
1	493	98.355761025573	45
1	535	111.537554777923	46
1	535	111.537554777923	47
1	556	114.940396434135	48
1	556	114.940396434135	49
1	583	120.2230396984	50
1	583	120.2230396984	51
1	599	124.652741035293	52
1	599	124.652741035293	53
1	620	132.687686665081	54
1	620	132.687686665081	55
1	650	141.317827153848	56
1	650	141.317827153848	57
1	666	146.580825983518	58
1	666	146.580825983518	59
1	685	150.701553645849	60
1	685	150.701553645849	61
1	706	153.298300302307	62
1	706	153.298300302307	63
1	748	161.556330330305	64
1	748	161.556330330305	65
1	772	165.979318271415	66
1	772	165.979318271415	67
1	796	170.530817291979	68
1	796	170.530817291979	69
1	814	177.726644002938	70
1	814	177.726644002938	71
1	835	180.717924921072	72
1	835	180.717924921072	73
1	859	186.059345254902	74
1	859	186.059345254902	75
1	875	190.193584028872	76
1	875	190.193584028872	77
1	902	196.097892055954	78
1	902	196.097892055954	79
1	916	197.219905511074	80
1	916	197.219905511074	81
1	932	201.713161392268	82
1	932	201.713161392268	83
1	978	209.379714267757	84
1	978	209.379714267757	85
1	1008	218.436422376533	86
1	1008	218.436422376533	87
1	1040	221.592075213154	88
1	1040	221.592075213154	89
1	1066	231.038166786367	90
1	1066	231.038166786367	91
1	1079	232.056889719355	92
1	1079	232.056889719355	93
1	1106	237.432782308206	94
1	1106	237.432782308206	95
2	7	0.127447623789	0
2	7	0.127447623789	1
2	7	0.127447623789	2
2	28	5.571533452369	3
2	28	5.571533452369	4
2	28	5.571533452369	5
2	42	7.183400555856	6
2	42	7.183400555856	7
2	42	7.183400555856	8
2	86	22.926675706663	9
2	86	22.926675706663	10
2	86	22.926675706663	11
2	97	24.73523706762	12
2	97	24.73523706762	13
2	97	24.73523706762	14
2	121	29.309715333314	15
2	121	29.309715333314	16
2	121	29.309715333314	17
2	139	30.337244620519	18
2	139	30.337244620519	19
2	139	30.337244620519	20
2	165	36.956020194594	21
2	165	36.956020194594	22
2	165	36.956020194594	23
2	175	38.325079529415	24
2	175	38.325079529415	25
2	175	38.325079529415	26
2	195	41.89803240288	27
2	195	41.89803240288	28
2	195	41.89803240288	29
2	206	43.115691201941	30
2	206	43.115691201941	31
2	206	43.115691201941	32
2	224	45.105396720141	33
2	224	45.105396720141	34
2	224	45.105396720141	35
2	240	46.994238457559	36
2	240	46.994238457559	37
2	240	46.994238457559	38
2	281	56.701636653063	39
2	281	56.701636653063	40
2	281	56.701636653063	41
2	309	63.773634670686	42
2	309	63.773634670686	43
2	309	63.773634670686	44
2	347	72.419812467444	45
2	347	72.419812467444	46
2	347	72.419812467444	47
2	365	73.949689437343	48
2	365	73.949689437343	49
2	365	73.949689437343	50
2	376	74.938077334349	51
2	376	74.938077334349	52
2	376	74.938077334349	53
2	402	83.173729822201	54
2	402	83.173729822201	55
2	402	83.173729822201	56
2	419	84.963105939766	57
2	419	84.963105939766	58
2	419	84.963105939766	59
2	449	90.882731159321	60
2	449	90.882731159321	61
2	449	90.882731159321	62
2	463	92.102374575767	63
2	463	92.102374575767	64
2	463	92.102374575767	65
2	482	96.970998471579	66
2	482	96.970998471579	67
2	482	96.970998471579	68
2	538	111.554050605368	69
2	538	111.554050605368	70
2	538	111.554050605368	71
2	563	114.962243122277	72
2	563	114.962243122277	73
2	563	114.962243122277	74
2	586	120.239265639815	75
2	586	120.239265639815	76
2	586	120.239265639815	77
2	631	132.731833483546	78
2	631	132.731833483546	79
2	631	132.731833483546	80
2	672	146.593133931448	81
2	672	146.593133931448	82
2	672	146.593133931448	83
2	692	150.722120170241	84
2	692	150.722120170241	85
2	692	150.722120170241	86
2	713	153.309359528692	87
2	713	153.309359528692	88
2	713	153.309359528692	89
2	741	161.543533916725	90
2	741	161.543533916725	91
2	741	161.543533916725	92
2	762	164.68530323074	93
2	762	164.68530323074	94
2	762	164.68530323074	95
2	786	168.748761127578	96
2	786	168.748761127578	97
2	786	168.748761127578	98
2	821	177.7378620425	99
2	821	177.7378620425	100
2	821	177.7378620425	101
2	838	180.746019016229	102
2	838	180.746019016229	103
2	838	180.746019016229	104
2	862	186.082843024368	105
2	862	186.082843024368	106
2	862	186.082843024368	107
2	882	190.205798371933	108
2	882	190.205798371933	109
2	882	190.205798371933	110
2	905	196.110669784331	111
2	905	196.110669784331	112
2	905	196.110669784331	113
2	919	197.239132241488	114
2	919	197.239132241488	115
2	919	197.239132241488	116
2	939	201.753347012241	117
2	939	201.753347012241	118
2	939	201.753347012241	119
2	964	206.763285288221	120
2	964	206.763285288221	121
2	964	206.763285288221	122
2	981	209.422646229018	123
2	981	209.422646229018	124
2	981	209.422646229018	125
2	1018	218.454501914508	126
2	1018	218.454501914508	127
2	1018	218.454501914508	128
2	1032	221.578423573751	129
2	1032	221.578423573751	130
2	1032	221.578423573751	131
2	1065	231.036921594697	132
2	1065	231.036921594697	133
2	1065	231.036921594697	134
2	1082	232.066925517746	135
2	1082	232.066925517746	136
2	1082	232.066925517746	137
2	1093	233.314996852611	138
2	1093	233.314996852611	139
2	1093	233.314996852611	140
2	1109	237.450938703987	141
2	1109	237.450938703987	142
2	1109	237.450938703987	143
3	23	5.554326662756	0
3	23	5.554326662756	1
3	23	5.554326662756	2
3	38	7.169876310816	3
3	38	7.169876310816	4
3	38	7.169876310816	5
3	82	22.866669413575	6
3	82	22.866669413575	7
3	82	22.866669413575	8
3	93	24.717566887393	9
3	93	24.717566887393	10
3	93	24.717566887393	11
3	107	26.158400644594	12
3	107	26.158400644594	13
3	107	26.158400644594	14
3	120	29.303262693582	15
3	120	29.303262693582	16
3	120	29.303262693582	17
3	135	30.319958311836	18
3	135	30.319958311836	19
3	135	30.319958311836	20
3	179	38.339263689598	21
3	179	38.339263689598	22
3	179	38.339263689598	23
3	202	43.100224283872	24
3	202	43.100224283872	25
3	202	43.100224283872	26
3	218	45.068926242356	27
3	218	45.068926242356	28
3	218	45.068926242356	29
3	235	46.980362422991	30
3	235	46.980362422991	31
3	235	46.980362422991	32
3	275	56.690648336629	33
3	275	56.690648336629	34
3	275	56.690648336629	35
3	294	62.138780270793	36
3	294	62.138780270793	37
3	294	62.138780270793	38
3	305	63.76309831323	39
3	305	63.76309831323	40
3	305	63.76309831323	41
3	332	70.414290601718	42
3	332	70.414290601718	43
3	332	70.414290601718	44
3	343	72.408016186474	45
3	343	72.408016186474	46
3	343	72.408016186474	47
3	355	73.912842557779	48
3	355	73.912842557779	49
3	355	73.912842557779	50
3	372	74.921623492799	51
3	372	74.921623492799	52
3	372	74.921623492799	53
3	398	83.158922612409	54
3	398	83.158922612409	55
3	398	83.158922612409	56
3	423	84.977319444342	57
3	423	84.977319444342	58
3	423	84.977319444342	59
3	445	90.872290292007	60
3	445	90.872290292007	61
3	445	90.872290292007	62
3	459	92.077683916078	63
3	459	92.077683916078	64
3	459	92.077683916078	65
3	486	96.996215463417	66
3	486	96.996215463417	67
3	486	96.996215463417	68
3	499	100.052281634212	69
3	499	100.052281634212	70
3	499	100.052281634212	71
3	525	109.125081609962	72
3	525	109.125081609962	73
3	525	109.125081609962	74
3	542	111.564969429114	75
3	542	111.564969429114	76
3	542	111.564969429114	77
3	549	113.430827794836	78
3	549	113.430827794836	79
3	549	113.430827794836	80
3	557	114.942203064468	81
3	557	114.942203064468	82
3	557	114.942203064468	83
3	621	132.692711910836	84
3	621	132.692711910836	85
3	621	132.692711910836	86
3	665	146.574990717005	87
3	665	146.574990717005	88
3	665	146.574990717005	89
3	686	150.703596923042	90
3	686	150.703596923042	91
3	686	150.703596923042	92
3	699	151.921349790289	93
3	699	151.921349790289	94
3	699	151.921349790289	95
3	707	153.299334673605	96
3	707	153.299334673605	97
3	707	153.299334673605	98
3	736	161.530898459639	99
3	736	161.530898459639	100
3	736	161.530898459639	101
3	757	164.671349246757	102
3	757	164.671349246757	103
3	757	164.671349246757	104
3	781	168.730255810035	105
3	781	168.730255810035	106
3	781	168.730255810035	107
3	815	177.727513275943	108
3	815	177.727513275943	109
3	815	177.727513275943	110
3	848	184.004878786417	111
3	848	184.004878786417	112
3	848	184.004878786417	113
3	876	190.194139391382	114
3	876	190.194139391382	115
3	876	190.194139391382	116
3	909	196.128108842173	117
3	909	196.128108842173	118
3	909	196.128108842173	119
3	935	201.739530258505	120
3	935	201.739530258505	121
3	935	201.739530258505	122
3	949	204.845447190101	123
3	949	204.845447190101	124
3	949	204.845447190101	125
3	960	206.749815741464	126
3	960	206.749815741464	127
3	960	206.749815741464	128
3	997	215.044080522682	129
3	997	215.044080522682	130
3	997	215.044080522682	131
3	1007	218.429093386266	132
3	1007	218.429093386266	133
3	1007	218.429093386266	134
3	1028	221.555883002277	135
3	1028	221.555883002277	136
3	1028	221.555883002277	137
3	1061	231.026190613632	138
3	1061	231.026190613632	139
3	1061	231.026190613632	140
3	1089	233.292884787816	141
3	1089	233.292884787816	142
3	1089	233.292884787816	143
4	27	5.566365463926	0
4	27	5.566365463926	1
4	27	5.566365463926	2
4	128	29.319821626723	3
4	128	29.319821626723	4
4	128	29.319821626723	5
4	143	30.351540700689	6
4	143	30.351540700689	7
4	143	30.351540700689	8
4	207	43.119361722963	9
4	207	43.119361722963	10
4	207	43.119361722963	11
4	228	45.11692810329	12
4	228	45.11692810329	13
4	228	45.11692810329	14
4	241	46.995425016845	15
4	241	46.995425016845	16
4	241	46.995425016845	17
4	298	62.160975450871	18
4	298	62.160975450871	19
4	298	62.160975450871	20
4	310	63.773777501324	21
4	310	63.773777501324	22
4	310	63.773777501324	23
4	336	70.429830843889	24
4	336	70.429830843889	25
4	336	70.429830843889	26
4	361	73.929409903339	27
4	361	73.929409903339	28
4	361	73.929409903339	29
4	409	83.202384210075	30
4	409	83.202384210075	31
4	409	83.202384210075	32
4	503	100.065225535852	33
4	503	100.065225535852	34
4	503	100.065225535852	35
4	567	114.97301900823	36
4	567	114.97301900823	37
4	567	114.97301900823	38
4	627	132.709703699696	39
4	627	132.709703699696	40
4	627	132.709703699696	41
4	714	153.316109756617	42
4	714	153.316109756617	43
4	714	153.316109756617	44
4	740	161.541953376798	45
4	740	161.541953376798	46
4	740	161.541953376798	47
4	761	164.683837577555	48
4	761	164.683837577555	49
4	761	164.683837577555	50
4	785	168.743340693289	51
4	785	168.743340693289	52
4	785	168.743340693289	53
4	822	177.739186416739	54
4	822	177.739186416739	55
4	822	177.739186416739	56
4	852	184.028306188111	57
4	852	184.028306188111	58
4	852	184.028306188111	59
4	883	190.208883090665	60
4	883	190.208883090665	61
4	883	190.208883090665	62
4	953	204.860206813939	63
4	953	204.860206813939	64
4	953	204.860206813939	65
4	965	206.772426410417	66
4	965	206.772426410417	67
4	965	206.772426410417	68
4	1012	218.444128278814	69
4	1012	218.444128278814	70
4	1012	218.444128278814	71
4	1033	221.578554405501	72
4	1033	221.578554405501	73
4	1033	221.578554405501	74
4	1067	231.039558689705	75
4	1067	231.039558689705	76
4	1067	231.039558689705	77

