version 2
run General-4-20231008-00:41:28-8770
attr configname General
attr datetime 20231008-00:41:28
attr experiment General
attr inifile omnetpp.ini
attr iterationvars ""
attr iterationvarsf ""
attr measurement ""
attr network Reliability
attr processid 8770
attr repetition 4
attr replication #4
attr resultdir results
attr runnumber 4
attr seedset 4
param Reliability.node[*].transmissionTime "uniform(1s, 2s)"
param Reliability.node[*].delayTime "uniform(0.01s, 0.2s)"
param Reliability.node[*].processingTime exponential(0.01s)
param Reliability.node[*].lossProbability 0.2

vector 0 Reliability.node[0] txVector ETV
vector 1 Reliability.node[1] txVector ETV
vector 2 Reliability.node[3] txVector ETV
vector 3 Reliability.node[4] txVector ETV
vector 4 Reliability.node[5] rxVector ETV
vector 5 Reliability.node[2] txVector ETV
0	1	0.193735669288	0
0	9	2.094357123985	1
0	17	4.070631578718	2
0	25	5.642988070533	3
0	31	7.029559352588	4
0	33	8.978536659539	5
0	37	10.764842643788	6
0	39	12.206191177167	7
0	47	13.271900715925	8
0	51	15.209472300871	9
0	53	16.245230489098	10
0	57	17.473993159285	11
0	65	19.111603408041	12
0	67	20.250354612399	13
0	75	21.827351581225	14
0	77	23.452282431222	15
0	83	25.347783592915	16
0	85	26.84557771372	17
0	93	28.028023114813	18
0	101	29.384396204644	19
0	107	30.980084321846	20
0	113	32.712677773938	21
0	117	33.777745581849	22
0	123	35.369619227631	23
0	125	36.89029362906	24
0	133	38.197306300665	25
0	141	40.007450723241	26
0	145	41.934859333712	27
0	153	43.123885087588	28
0	157	44.260810905754	29
0	159	46.163232764614	30
0	161	48.142849027797	31
0	169	49.766417866492	32
0	171	50.770338763635	33
0	179	52.232668125921	34
0	187	54.176465631149	35
0	191	55.40636253116	36
0	199	56.446453652729	37
0	207	58.343145507772	38
0	215	59.349469447893	39
0	223	61.16030656352	40
0	231	62.569897952641	41
0	239	63.849129893037	42
0	247	65.189056313748	43
0	255	66.611422259978	44
0	263	67.70233280646	45
0	265	68.718816424639	46
0	273	70.032183050795	47
0	281	71.407523195876	48
0	289	72.785368211951	49
0	291	74.692832861014	50
0	299	75.878042095725	51
0	301	77.283801309683	52
0	309	79.25550463089	53
0	317	80.525870112621	54
0	325	81.551271814073	55
0	327	83.10007693657	56
0	335	84.699874426157	57
0	343	86.340435345576	58
0	345	87.520284981386	59
0	353	88.95730845529	60
0	355	90.370349498618	61
0	363	91.432916404366	62
0	367	93.000285371825	63
0	369	94.291125225056	64
0	371	96.036952789094	65
0	379	97.988621381264	66
0	387	99.006155049115	67
0	389	100.361776707148	68
0	397	101.669181594545	69
0	403	102.69051143519	70
0	411	103.889567086626	71
0	419	105.823109715631	72
0	425	107.682990992594	73
0	433	109.321854101181	74
0	435	111.287282698708	75
0	439	112.853762732972	76
0	445	114.173187924004	77
0	447	115.745012617591	78
0	455	116.896501866556	79
0	463	118.541950213877	80
0	465	120.113184417752	81
0	473	121.232666334291	82
0	475	123.076895297891	83
0	483	124.321694572377	84
0	485	125.756970882802	85
0	487	126.82913830263	86
0	489	128.361366826961	87
0	491	130.300195737429	88
0	499	131.605011446089	89
0	505	133.473256023987	90
0	513	134.674238327346	91
0	519	136.107406977252	92
0	525	137.804458416221	93
0	529	139.507588294256	94
0	535	141.473117604075	95
0	539	143.391300905418	96
0	545	145.37381277505	97
0	553	146.998953965648	98
0	557	148.279543782507	99
0	565	150.003940787322	100
0	573	151.708205917074	101
0	581	153.49011040541	102
0	583	155.158547987385	103
0	591	157.011361533931	104
0	599	158.546465803558	105
0	603	160.153972560694	106
0	607	161.494425184946	107
0	609	163.059282290205	108
0	615	164.178427186483	109
0	623	165.838285435844	110
0	629	167.539092668254	111
0	637	169.219781703238	112
0	645	171.078500573678	113
0	649	172.2605755801	114
0	653	173.445841859948	115
0	661	175.409591301732	116
0	669	177.231904243972	117
0	677	178.726773962067	118
0	681	180.383784011859	119
0	687	181.559797494128	120
0	693	182.858124489817	121
0	701	183.889081393522	122
0	709	184.950461412235	123
0	717	186.172177122827	124
0	725	187.876673479951	125
0	733	189.339210129497	126
0	735	190.45328992737	127
0	741	192.383209210509	128
0	749	194.314820310721	129
0	757	195.646134543154	130
0	759	196.686316845627	131
0	767	198.212744991682	132
0	775	199.667827892504	133
0	783	201.049232878643	134
0	791	202.463950624377	135
0	793	203.707329931356	136
0	799	205.482254568407	137
0	801	206.976521260257	138
0	809	208.703603057808	139
0	813	210.521350781352	140
0	815	211.535246786813	141
0	817	213.52343320722	142
0	823	214.739774581429	143
0	825	216.077525521314	144
0	829	217.697175869404	145
0	837	219.281938200968	146
0	839	220.864458281233	147
0	841	222.369370618288	148
0	849	223.731919811957	149
0	851	224.845457005466	150
0	859	226.066385865363	151
0	867	227.880630257924	152
0	869	229.601025037852	153
0	871	230.718492699007	154
0	879	231.864804305055	155
0	883	233.311291625642	156
0	885	234.351489472355	157
0	891	235.429048640573	158
0	893	237.038312191296	159
0	901	238.159572726268	160
1	3	0.205631491707	0
1	11	2.104419621445	1
1	19	4.085117857454	2
1	27	5.653439718533	3
1	35	9.008657427005	4
1	41	12.218125340758	5
1	49	13.289275806181	6
1	55	16.257602667352	7
1	59	17.489126370676	8
1	69	20.264688224177	9
1	79	23.466789989267	10
1	87	26.880634895561	11
1	95	28.06151737608	12
1	103	29.395280819238	13
1	109	31.012589115995	14
1	115	32.730444686653	15
1	119	33.817774089334	16
1	127	36.918200142964	17
1	135	38.214444772855	18
1	143	40.019403672502	19
1	147	41.951257697864	20
1	155	43.135078671623	21
1	163	48.153717513887	22
1	173	50.781910710536	23
1	181	52.24457706541	24
1	189	54.1868412123	25
1	193	55.416523533073	26
1	201	56.463463450143	27
1	209	58.354191646392	28
1	217	59.366721435335	29
1	225	61.18469852839	30
1	233	62.581171477148	31
1	241	63.865009491735	32
1	249	65.220018358636	33
1	257	66.629565967904	34
1	267	68.774985735479	35
1	275	70.042485313224	36
1	283	71.422493541764	37
1	293	74.70807504795	38
1	303	77.294250472791	39
1	311	79.266819712631	40
1	319	80.537336049553	41
1	329	83.142713921329	42
1	337	84.710934146859	43
1	347	87.550393408065	44
1	357	90.382531362122	45
1	365	91.453026100867	46
1	373	96.057823231634	47
1	381	98.020576873531	48
1	391	100.373213934184	49
1	399	101.687950368732	50
1	405	102.706320323167	51
1	413	103.902025019637	52
1	421	105.851065998561	53
1	427	107.698579865287	54
1	437	111.325497526544	55
1	441	112.876855806629	56
1	449	115.759506507249	57
1	457	116.90927450713	58
1	467	120.139089812963	59
1	477	123.111059141883	60
1	493	130.310852194091	61
1	501	131.628636032683	62
1	507	133.532861922312	63
1	515	134.68504792032	64
1	521	136.148432568663	65
1	527	137.816056900129	66
1	531	139.524937608913	67
1	537	141.486564273875	68
1	541	143.401517942575	69
1	547	145.402997806965	70
1	555	147.014948609629	71
1	559	148.300178819599	72
1	567	150.039595014528	73
1	575	151.738793210973	74
1	585	155.186383007681	75
1	593	157.05388167271	76
1	601	158.574474570483	77
1	605	160.167894421172	78
1	611	163.069484945675	79
1	617	164.196955226787	80
1	625	165.850364201671	81
1	631	167.556850386229	82
1	639	169.230854944497	83
1	647	171.102967664056	84
1	651	172.271048320646	85
1	655	173.473872040949	86
1	663	175.440399921482	87
1	671	177.256343141792	88
1	679	178.751712426745	89
1	683	180.405333579676	90
1	689	181.594119346984	91
1	695	182.879050920195	92
1	703	183.901520506788	93
1	711	184.963896818366	94
1	719	186.182892457872	95
1	727	187.888822989169	96
1	737	190.469555660623	97
1	743	192.433873379855	98
1	751	194.336423037215	99
1	761	196.696891111986	100
1	769	198.226568275611	101
1	777	199.732528441747	102
1	785	201.070468509971	103
1	795	203.723284332392	104
1	803	206.993281518552	105
1	811	208.714009293283	106
1	819	213.538335247062	107
1	827	216.093618056747	108
1	831	217.719988289421	109
1	843	222.383537863964	110
1	853	224.902199868314	111
1	861	226.119746534354	112
1	873	230.748331912599	113
1	881	231.878710704701	114
1	887	234.399654863053	115
1	895	237.053235332569	116
2	5	0.228177698444	0
2	13	2.137768486183	1
2	21	4.096907237256	2
2	71	20.286293114346	3
2	81	23.493445043375	4
2	97	28.080006939752	5
2	121	33.842373844581	6
2	165	48.170702087891	7
2	203	56.476644470664	8
2	219	59.389467252314	9
2	235	62.608856865716	10
2	243	63.878499855918	11
2	251	65.264651468701	12
2	277	70.057496316128	13
2	295	74.722868870906	14
2	305	77.323820648358	15
2	313	79.296722825721	16
2	339	84.748885594793	17
2	349	87.622632381562	18
2	375	96.073316400262	19
2	393	100.385811930691	20
2	415	103.920637452353	21
2	423	105.868097982039	22
2	443	112.88805893414	23
2	469	120.156383944183	24
2	495	130.327479437969	25
2	503	131.656433985653	26
2	523	136.174324648198	27
2	533	139.540930675791	28
2	543	143.420669162216	29
2	549	145.420555137717	30
2	561	148.322954084667	31
2	577	151.770082658394	32
2	619	164.224919972947	33
2	673	177.267629559279	34
2	685	180.41822847962	35
2	691	181.616713334231	36
2	697	182.922066747852	37
2	713	184.978748078536	38
2	721	186.199012908969	39
2	729	187.903507507231	40
2	745	192.448308446568	41
2	763	196.73083573247	42
2	787	201.089028563243	43
2	805	207.027918723562	44
2	833	217.731365984397	45
2	845	222.394680879048	46
3	7	0.247279696778	0
3	15	2.162881753952	1
3	23	4.123617591557	2
3	45	12.277267769259	3
3	63	17.523611734296	4
3	73	20.297161436583	5
3	91	26.909819941473	6
3	99	28.103228541904	7
3	131	36.964464670864	8
3	139	38.263747574591	9
3	151	41.998696089334	10
3	167	48.198190402151	11
3	177	50.830241940907	12
3	185	52.281146664735	13
3	197	55.460215739398	14
3	205	56.493030455766	15
3	213	58.40689989155	16
3	221	59.422304078835	17
3	229	61.228308875679	18
3	237	62.634352467291	19
3	245	63.89247962023	20
3	253	65.288484138762	21
3	261	66.666319644543	22
3	271	68.799038414341	23
3	279	70.073386443884	24
3	287	71.502494131151	25
3	297	74.754596220737	26
3	307	77.340035422793	27
3	315	79.315004553585	28
3	323	80.564024618016	29
3	333	83.180428973869	30
3	341	84.776494487059	31
3	351	87.633942461627	32
3	361	90.404997349215	33
3	377	96.084266922594	34
3	385	98.053205745824	35
3	395	100.415843734895	36
3	409	102.753659180857	37
3	417	103.962281270077	38
3	431	107.765424794322	39
3	453	115.831711791598	40
3	461	116.953888910129	41
3	471	120.178666593818	42
3	481	123.136683349409	43
3	497	130.344233900623	44
3	511	133.559642914663	45
3	551	145.437537830881	46
3	563	148.34483027978	47
3	571	150.073003062592	48
3	579	151.791266619712	49
3	589	155.217279427643	50
3	597	157.108419240582	51
3	621	164.25960185649	52
3	635	167.605976429825	53
3	643	169.26115325056	54
3	659	173.530081935852	55
3	667	175.473020736688	56
3	675	177.281258523689	57
3	699	182.935637516234	58
3	707	183.963268317483	59
3	715	184.993371991382	60
3	723	186.211526419734	61
3	731	187.924653595117	62
3	747	192.462220538392	63
3	755	194.382396502528	64
3	765	196.74698822454	65
3	773	198.265331810958	66
3	781	199.76806374876	67
3	789	201.125411148368	68
3	807	207.050039819693	69
3	835	217.779680297633	70
3	847	222.436803974087	71
3	857	224.932609213678	72
3	865	226.168561505108	73
3	877	230.793199895309	74
3	899	237.077457723673	75
4	24	4.133617591557	0
4	46	12.287267769259	1
4	64	17.533611734296	2
4	74	20.307161436583	3
4	92	26.919819941473	4
4	100	28.113228541904	5
4	132	36.974464670864	6
4	140	38.273747574591	7
4	152	42.008696089334	8
4	168	48.208190402151	9
4	178	50.840241940907	10
4	186	52.291146664735	11
4	198	55.470215739398	12
4	206	56.503030455766	13
4	214	58.41689989155	14
4	230	61.238308875679	15
4	238	62.644352467291	16
4	246	63.90247962023	17
4	254	65.298484138762	18
4	262	66.676319644543	19
4	280	70.083386443884	20
4	288	71.512494131151	21
4	298	74.764596220737	22
4	308	77.350035422793	23
4	316	79.325004553585	24
4	334	83.190428973869	25
4	342	84.786494487059	26
4	352	87.643942461627	27
4	362	90.414997349215	28
4	378	96.094266922594	29
4	386	98.063205745824	30
4	396	100.425843734895	31
4	410	102.763659180857	32
4	418	103.972281270077	33
4	432	107.775424794322	34
4	454	115.841711791598	35
4	462	116.963888910129	36
4	472	120.188666593818	37
4	482	123.146683349409	38
4	498	130.354233900623	39
4	512	133.569642914663	40
4	552	145.447537830881	41
4	564	148.35483027978	42
4	572	150.083003062592	43
4	580	151.801266619712	44
4	598	157.118419240582	45
4	636	167.615976429825	46
4	644	169.27115325056	47
4	676	177.291258523689	48
4	700	182.945637516234	49
4	708	183.973268317483	50
4	716	185.003371991382	51
4	724	186.221526419734	52
4	732	187.934653595117	53
4	748	192.472220538392	54
4	756	194.392396502528	55
4	766	196.75698822454	56
4	774	198.275331810958	57
4	790	201.135411148368	58
4	808	207.060039819693	59
4	836	217.789680297633	60
4	858	224.942609213678	61
4	866	226.178561505108	62
4	878	230.803199895309	63
4	900	237.087457723673	64
5	29	5.680103087666	0
5	43	12.241344655515	1
5	61	17.503832303647	2
5	89	26.894428096746	3
5	105	29.405737571643	4
5	111	31.023646949012	5
5	129	36.936678088241	6
5	137	38.252137352431	7
5	149	41.982955483125	8
5	175	50.806162290338	9
5	183	52.256749981362	10
5	195	55.439501351727	11
5	211	58.39166379367	12
5	227	61.216861477598	13
5	259	66.64619028815	14
5	269	68.787953702626	15
5	285	71.445755663888	16
5	321	80.551985553117	17
5	331	83.15617919821	18
5	359	90.39296982075	19
5	383	98.039093230178	20
5	401	101.708894284026	21
5	407	102.739268910792	22
5	429	107.727300425839	23
5	451	115.808847934485	24
5	459	116.939521642104	25
5	479	123.121374488877	26
5	509	133.546240272448	27
5	517	134.695858624051	28
5	569	150.059816252923	29
5	587	155.203367931781	30
5	595	157.086598937753	31
5	613	163.080781906281	32
5	627	165.882405712278	33
5	633	167.577417169826	34
5	641	169.250995416563	35
5	657	173.50631762902	36
5	665	175.462680753606	37
5	705	183.917151288444	38
5	739	190.482922377973	39
5	753	194.361640734041	40
5	771	198.254919860224	41
5	779	199.743176513313	42
5	797	203.760410533987	43
5	821	213.556443980579	44
5	855	224.916185355812	45
5	863	226.144368021435	46
5	875	230.771212430244	47
5	889	234.423606754762	48
5	897	237.065754908301	49

