version 2
run General-3-20231008-00:41:28-8770
attr configname General
attr datetime 20231008-00:41:28
attr experiment General
attr inifile omnetpp.ini
attr iterationvars ""
attr iterationvarsf ""
attr measurement ""
attr network Reliability
attr processid 8770
attr repetition 3
attr replication #3
attr resultdir results
attr runnumber 3
attr seedset 3
param Reliability.node[*].transmissionTime "uniform(1s, 2s)"
param Reliability.node[*].delayTime "uniform(0.01s, 0.2s)"
param Reliability.node[*].processingTime exponential(0.01s)
param Reliability.node[*].lossProbability 0.2

vector 0 Reliability.node[0] txVector ETV
vector 1 Reliability.node[1] txVector ETV
vector 2 Reliability.node[3] txVector ETV
vector 3 Reliability.node[2] txVector ETV
vector 4 Reliability.node[4] txVector ETV
vector 5 Reliability.node[5] rxVector ETV
0	1	0.114651601831	0
0	5	1.185376482154	1
0	11	2.69620408311	2
0	17	3.90344696173	3
0	25	5.360280184378	4
0	33	7.126106558903	5
0	41	8.56656028151	6
0	45	10.459625387867	7
0	47	12.435620815796	8
0	55	14.108004494407	9
0	59	15.895142994891	10
0	67	17.120197497611	11
0	75	18.773828350077	12
0	83	19.979238690179	13
0	91	21.341579148848	14
0	99	23.009713953896	15
0	107	24.311977567453	16
0	115	26.035916704055	17
0	117	27.21197881929	18
0	119	29.202280007837	19
0	121	30.894930624239	20
0	125	32.647070654271	21
0	133	34.599171899328	22
0	141	36.418952628108	23
0	149	38.079278530622	24
0	151	39.90730064765	25
0	159	41.140992656885	26
0	167	42.230783524527	27
0	175	43.734038814739	28
0	179	44.877371129184	29
0	187	46.134577507223	30
0	195	47.78680063209	31
0	201	49.646854094998	32
0	209	51.638149815914	33
0	215	53.502269485569	34
0	221	55.197232924005	35
0	229	56.923922678525	36
0	237	58.420587633107	37
0	245	59.661157947801	38
0	249	60.899594245547	39
0	257	61.991725836018	40
0	265	63.223186866682	41
0	273	64.998154684737	42
0	277	66.718305918457	43
0	279	67.763803225778	44
0	287	68.819444771692	45
0	295	70.335730523871	46
0	299	72.21997195233	47
0	301	73.503661402104	48
0	305	74.716555737726	49
0	313	75.900328053696	50
0	321	77.35463983456	51
0	323	78.577962812338	52
0	327	79.820940995658	53
0	329	81.095578465214	54
0	333	83.037492828745	55
0	341	84.716994636528	56
0	347	85.897734965499	57
0	355	87.691057643689	58
0	361	88.966610105078	59
0	363	90.578203941531	60
0	367	91.620234795449	61
0	375	92.720812508207	62
0	377	94.692034744494	63
0	385	96.173881132923	64
0	393	98.018156764865	65
0	399	99.689727013534	66
0	407	101.197884444915	67
0	415	102.220907419058	68
0	417	103.697999058128	69
0	425	105.198564609349	70
0	433	107.094973595882	71
0	441	108.662875768798	72
0	443	110.505116996192	73
0	447	112.13807752945	74
0	455	113.812887465651	75
0	463	115.384023092058	76
0	467	116.918998671532	77
0	471	118.331429737922	78
0	477	119.469239630806	79
0	485	120.985484111658	80
0	493	122.610992505285	81
0	501	124.380647223047	82
0	505	126.019277566182	83
0	513	127.765948660508	84
0	521	129.304553985665	85
0	525	131.250161303509	86
0	527	133.105709505104	87
0	529	134.433945857989	88
0	533	135.52018947557	89
0	535	137.055114812287	90
0	543	138.519651789753	91
0	545	139.602443815278	92
0	553	140.823117468808	93
0	555	142.168070934083	94
0	557	143.562822808114	95
0	561	144.585054696606	96
0	569	146.583401775289	97
0	573	148.338931250222	98
0	577	149.828195241814	99
0	579	151.714679652893	100
0	587	153.006936432396	101
0	591	154.050932688939	102
0	599	155.531624473466	103
0	607	157.002692275282	104
0	609	158.73266602291	105
0	617	160.156781923093	106
0	625	161.473464715362	107
0	633	163.000426972585	108
0	637	164.249116904635	109
0	643	165.406351586405	110
0	645	166.912317863732	111
0	653	167.973365932071	112
0	661	169.932931231867	113
0	665	171.910325458107	114
0	673	173.624699171001	115
0	679	175.430245506644	116
0	683	176.811086618641	117
0	687	178.032848527489	118
0	693	179.102967540102	119
0	697	180.276765986413	120
0	701	182.135798057609	121
0	707	183.222316198119	122
0	715	185.088332017253	123
0	723	187.049196235671	124
0	729	188.559669070945	125
0	737	190.394206254811	126
0	745	192.261214486857	127
0	753	193.789709262618	128
0	761	195.626737914815	129
0	765	197.527752464007	130
0	773	198.631008029518	131
0	777	200.159173157833	132
0	783	201.341420502237	133
0	791	202.838488031247	134
0	799	204.632722227902	135
0	807	206.608707747723	136
0	809	208.5830038144	137
0	817	210.331386854474	138
0	823	211.60123607849	139
0	829	212.705082274342	140
0	835	213.712699766338	141
0	839	214.844712241853	142
0	845	216.539237439001	143
0	853	218.517499057876	144
0	861	220.327175955588	145
0	863	222.151305564513	146
0	871	223.229487863203	147
0	873	225.194205947753	148
0	879	226.832959575646	149
0	881	228.048651761676	150
0	889	229.506379700799	151
0	897	230.599587498533	152
0	905	232.536441950661	153
0	913	233.804209133212	154
0	919	235.294220789636	155
0	927	236.612019235569	156
0	933	238.071662090088	157
0	939	239.285805011702	158
1	3	0.14297423212	0
1	7	1.217720790617	1
1	13	2.706732472287	2
1	19	3.923920757162	3
1	27	5.406642398294	4
1	35	7.137812873323	5
1	43	8.589233740233	6
1	49	12.468934170576	7
1	57	14.130506956958	8
1	61	15.910360511133	9
1	69	17.141064915814	10
1	77	18.786077034386	11
1	85	19.996497349039	12
1	93	21.355732010579	13
1	101	23.036165779733	14
1	109	24.328422825504	15
1	123	30.90616605682	16
1	127	32.668515492549	17
1	135	34.617641522542	18
1	143	36.453483831847	19
1	153	39.919568118615	20
1	161	41.157704033638	21
1	169	42.249275398769	22
1	177	43.749385335759	23
1	181	44.890609633121	24
1	189	46.175915850855	25
1	197	47.799264727028	26
1	203	49.658569926269	27
1	211	51.651587014525	28
1	217	53.530684422284	29
1	223	55.208734958623	30
1	231	56.946087846722	31
1	239	58.448182267813	32
1	247	59.683120165824	33
1	251	60.912027063623	34
1	259	62.007588292767	35
1	267	63.235811380846	36
1	275	65.013432560324	37
1	281	67.787379800091	38
1	289	68.834041032561	39
1	297	70.351633004	40
1	303	73.519113269669	41
1	307	74.732289081331	42
1	315	75.915405306564	43
1	325	78.594492606714	44
1	331	81.108818716287	45
1	335	83.063350266492	46
1	343	84.740613753468	47
1	349	85.917794479915	48
1	357	87.702627573692	49
1	365	90.593604201493	50
1	369	91.637204808298	51
1	379	94.71534119888	52
1	387	96.189094560024	53
1	395	98.034325452699	54
1	401	99.720244463721	55
1	409	101.209954083864	56
1	419	103.713404381919	57
1	427	105.222155432048	58
1	435	107.106194506514	59
1	445	110.530780337366	60
1	449	112.163724765197	61
1	457	113.835264716652	62
1	465	115.405766057509	63
1	469	116.963029728151	64
1	473	118.341451016152	65
1	479	119.487684175561	66
1	487	121.006584872345	67
1	495	122.622566005228	68
1	503	124.39920172094	69
1	507	126.03779714976	70
1	515	127.788608119678	71
1	523	129.316042227747	72
1	531	134.448141689984	73
1	537	137.065181979548	74
1	547	139.6314894914	75
1	559	143.58362111748	76
1	563	144.605151301822	77
1	571	146.598315669287	78
1	575	148.352327668006	79
1	581	151.729489490439	80
1	589	153.018632453497	81
1	593	154.061812498144	82
1	601	155.542075652435	83
1	611	158.748753206975	84
1	619	160.167547317941	85
1	627	161.487642268094	86
1	635	163.016344423428	87
1	639	164.259403925265	88
1	647	166.924275153503	89
1	655	167.991494254251	90
1	663	169.952703265181	91
1	667	171.922196115316	92
1	675	173.661561275583	93
1	681	175.453894936377	94
1	685	176.836808343193	95
1	689	178.060167137792	96
1	695	179.132588223474	97
1	699	180.297694097451	98
1	703	182.151514197519	99
1	709	183.237092061234	100
1	717	185.114871770814	101
1	725	187.062697858575	102
1	731	188.571598859786	103
1	739	190.432652843268	104
1	747	192.279169989158	105
1	755	193.807513521181	106
1	763	195.646315173205	107
1	767	197.543319390036	108
1	775	198.653217679401	109
1	779	200.181537897174	110
1	785	201.379464662601	111
1	793	202.850100949382	112
1	801	204.653216782907	113
1	811	208.636832141835	114
1	819	210.352139111108	115
1	825	211.63628715993	116
1	831	212.721790489072	117
1	837	213.726539231024	118
1	841	214.865589759073	119
1	847	216.550216297342	120
1	855	218.532990166873	121
1	865	222.177152511529	122
1	875	225.228612683412	123
1	883	228.087740118926	124
1	891	229.520507278132	125
1	899	230.617895147463	126
1	907	232.549496201791	127
1	915	233.837994726992	128
1	921	235.32224424332	129
1	929	236.634575311779	130
1	935	238.085583527424	131
1	941	239.30732881439	132
2	9	1.227910050438	0
2	29	5.42200556261	1
2	37	7.161987225582	2
2	51	12.484025623541	3
2	63	15.934150022489	4
2	79	18.814468134156	5
2	111	24.340741719046	6
2	137	34.634185402756	7
2	145	36.466816309463	8
2	155	39.965358816996	9
2	183	44.91113998494	10
2	191	46.193837369213	11
2	199	47.827433187946	12
2	205	49.691162340696	13
2	213	51.680407486324	14
2	219	53.565924275884	15
2	233	56.991710066379	16
2	241	58.459301887328	17
2	253	60.938124309515	18
2	283	67.812647211872	19
2	291	68.844810251168	20
2	309	74.751878592326	21
2	317	75.928628158702	22
2	337	83.078842889507	23
2	345	84.759702021062	24
2	359	87.72728673856	25
2	371	91.647839966411	26
2	381	94.734947403902	27
2	389	96.219265140223	28
2	421	103.737850154518	29
2	429	105.257390319783	30
2	437	107.125171011014	31
2	583	151.749115255351	32
2	595	154.080109541022	33
2	649	166.938043943541	34
2	657	168.007430484288	35
2	677	173.678158058156	36
2	705	182.204131254559	37
2	719	185.129142257313	38
2	795	202.861805763724	39
2	813	208.648644375965	40
2	833	212.748447218452	41
2	849	216.560258934473	42
2	857	218.561630987441	43
2	877	225.249208616165	44
2	885	228.109349250336	45
2	893	229.537986695934	46
2	909	232.568888068724	47
2	923	235.34954818247	48
2	931	236.669332965913	49
2	943	239.318988304765	50
3	15	2.728601127249	0
3	21	3.938288845562	1
3	71	17.154398516706	2
3	87	20.0182444967	3
3	95	21.3832263737	4
3	103	23.048787017355	5
3	129	32.68300418779	6
3	163	41.171248049706	7
3	171	42.260040145942	8
3	225	55.229220994683	9
3	261	62.018592761234	10
3	269	63.25159177272	11
3	351	85.930864155401	12
3	397	98.048485645908	13
3	403	99.730788761806	14
3	411	101.232502769061	15
3	451	112.182810585703	16
3	459	113.853414868384	17
3	475	118.356703471143	18
3	481	119.507032382478	19
3	489	121.026361882748	20
3	497	122.633433270031	21
3	509	126.051931805564	22
3	517	127.806669774323	23
3	539	137.082941850315	24
3	549	139.651147643899	25
3	565	144.627121430877	26
3	603	155.559583525464	27
3	613	158.766763671119	28
3	621	160.181187355082	29
3	629	161.508912493482	30
3	641	164.291361011697	31
3	669	171.95471973072	32
3	691	178.080566227356	33
3	711	183.26152312657	34
3	727	187.083049081416	35
3	733	188.586655576824	36
3	741	190.449334768014	37
3	749	192.29436790665	38
3	757	193.825469901754	39
3	769	197.564658859861	40
3	781	200.193269563203	41
3	787	201.401296058137	42
3	803	204.666427861693	43
3	821	210.368831232414	44
3	827	211.685104204657	45
3	843	214.876057674888	46
3	867	222.196995532016	47
3	901	230.628350117174	48
3	917	233.854620036726	49
3	937	238.098195699811	50
4	23	3.957225893101	0
4	31	5.435663593501	1
4	39	7.175645298347	2
4	53	12.494993122824	3
4	65	15.947600207841	4
4	73	17.169084558446	5
4	81	18.831076590213	6
4	89	20.032046631027	7
4	97	21.399116859242	8
4	105	23.065373427654	9
4	113	24.351495013858	10
4	131	32.696067899706	11
4	139	34.64849208155	12
4	147	36.484864799814	13
4	157	39.977444456124	14
4	165	41.187885763237	15
4	173	42.27132549766	16
4	185	44.939173022057	17
4	193	46.204432019215	18
4	207	49.705317584911	19
4	227	55.260193957432	20
4	235	57.062959568066	21
4	243	58.475889287641	22
4	255	60.951902609428	23
4	263	62.044380018772	24
4	271	63.26579391402	25
4	285	67.824346349522	26
4	293	68.877913481211	27
4	311	74.77156793333	28
4	319	75.947581428965	29
4	339	83.093801570267	30
4	353	85.951510146251	31
4	373	91.67609747782	32
4	383	94.764401157015	33
4	391	96.230382744169	34
4	405	99.743691353056	35
4	413	101.255087611582	36
4	423	103.758900108075	37
4	431	105.303541193946	38
4	439	107.142803189595	39
4	453	112.202785921986	40
4	461	113.871880154103	41
4	483	119.539238249548	42
4	491	121.043116159987	43
4	499	122.643936274527	44
4	511	126.089966983607	45
4	519	127.81703286866	46
4	541	137.11010602551	47
4	551	139.663725051288	48
4	567	144.644533981878	49
4	585	151.771698910785	50
4	597	154.093448395399	51
4	605	155.570513245763	52
4	615	158.790159031921	53
4	623	160.192125984436	54
4	631	161.522355472122	55
4	651	166.967245183973	56
4	659	168.027033985702	57
4	671	171.968065383648	58
4	713	183.289990969117	59
4	721	185.146422123052	60
4	735	188.596807736302	61
4	743	190.466117303164	62
4	751	192.322600753449	63
4	759	193.838706149264	64
4	771	197.578452106722	65
4	789	201.416472633471	66
4	797	202.878571888042	67
4	805	204.68571447842	68
4	815	208.664355123655	69
4	851	216.5802888264	70
4	859	218.575065391746	71
4	869	222.223251434467	72
4	887	228.130508051144	73
4	895	229.54816479874	74
4	903	230.657740734153	75
4	911	232.601043956434	76
4	925	235.370774147242	77
4	945	239.340407251927	78
5	32	5.445663593501	0
5	40	7.185645298347	1
5	54	12.504993122824	2
5	66	15.957600207841	3
5	82	18.841076590213	4
5	90	20.042046631027	5
5	132	32.706067899706	6
5	140	34.65849208155	7
5	158	39.987444456124	8
5	166	41.197885763237	9
5	208	49.715317584911	10
5	244	58.485889287641	11
5	256	60.961902609428	12
5	264	62.054380018772	13
5	272	63.27579391402	14
5	286	67.834346349522	15
5	294	68.887913481211	16
5	312	74.78156793333	17
5	374	91.68609747782	18
5	392	96.240382744169	19
5	406	99.753691353056	20
5	414	101.265087611582	21
5	424	103.768900108075	22
5	454	112.212785921986	23
5	484	119.549238249548	24
5	492	121.053116159987	25
5	500	122.653936274527	26
5	512	126.099966983607	27
5	520	127.82703286866	28
5	542	137.12010602551	29
5	552	139.673725051288	30
5	568	144.654533981878	31
5	586	151.781698910785	32
5	598	154.103448395399	33
5	606	155.580513245763	34
5	616	158.800159031921	35
5	652	166.977245183973	36
5	660	168.037033985702	37
5	672	171.978065383648	38
5	714	183.299990969117	39
5	722	185.156422123052	40
5	736	188.606807736302	41
5	744	190.476117303164	42
5	772	197.588452106722	43
5	790	201.426472633471	44
5	798	202.888571888042	45
5	806	204.69571447842	46
5	816	208.674355123655	47
5	852	216.5902888264	48
5	860	218.585065391746	49
5	870	222.233251434467	50
5	888	228.140508051144	51
5	896	229.55816479874	52
5	904	230.667740734153	53
5	912	232.611043956434	54
5	946	239.350407251927	55

