version 2
run General-3-20231008-06:14:46-15473
attr configname General
attr datetime 20231008-06:14:46
attr experiment General
attr inifile omnetpp.ini
attr iterationvars ""
attr iterationvarsf ""
attr measurement ""
attr network Network1
attr processid 15473
attr repetition 3
attr replication #3
attr resultdir results
attr runnumber 3
attr seedset 3
param Network1.node[*].transmissionTime "uniform(1s, 2s)"
param Network1.node[*].delayTime "uniform(0.01s, 0.2s)"
param Network1.node[*].processingTime exponential(0.01s)
param Network1.node[*].lossProbability 0.0
param Reliability.node[*].transmissionTime "uniform(1s, 2s)"
param Reliability.node[*].delayTime "uniform(0.01s, 0.2s)"
param Reliability.node[*].processingTime exponential(0.01s)
param Reliability.node[*].lossProbability 0.0

vector 0 Network1.node[0] txVector ETV
vector 1 Network1.node[1] txVector ETV
vector 2 Network1.node[2] txVector ETV
vector 3 Network1.node[4] txVector ETV
vector 4 Network1.node[3] txVector ETV
vector 5 Network1.node[5] rxVector ETV
0	1	0.114651601831	0
0	19	1.185376482154	1
0	37	2.880200139316	2
0	55	4.282560781645	3
0	73	6.175625888002	4
0	91	7.962764388486	5
0	109	9.625450654491	6
0	127	11.071351095173	7
0	145	12.897479169839	8
0	163	14.403053227649	9
0	181	15.519269818044	10
0	199	17.400380558171	11
0	217	19.228402675199	12
0	235	20.526809529005	13
0	253	22.526784992846	14
0	271	23.88251408406	15
0	289	25.040183839457	16
0	307	26.347867567627	17
0	325	27.844532522209	18
0	343	29.130836650565	19
0	361	30.733327181613	20
0	379	32.172329882229	21
0	397	33.955087412684	22
0	415	35.839152081241	23
0	433	37.818229336129	24
0	451	39.050327725546	25
0	469	40.780487263878	26
0	487	42.41854014534	27
0	505	44.002470237971	28
0	523	45.846917217667	29
0	541	47.562296287226	30
0	559	49.385529844858	31
0	577	51.299910283717	32
0	595	52.356610421394	33
0	613	53.40011651495	34
0	631	54.815715725603	35
0	649	56.443741210806	36
0	667	58.114207317889	37
0	685	59.607058639707	38
0	703	61.145663964864	39
0	721	62.473900317749	40
0	739	64.362673195381	41
0	757	65.531774834799	42
0	775	67.358701988425	43
0	793	69.247516015381	44
0	811	71.010935948532	45
0	829	72.968407113872	46
0	847	74.145010553136	47
0	865	76.06887727517	48
0	883	77.391644644619	49
0	901	79.106018357513	50
0	919	80.269606391968	51
0	937	81.366663707489	52
0	955	82.423905509826	53
0	973	84.333407050068	54
0	991	85.730306715541	55
0	1009	86.984771872241	56
0	1027	88.261250180028	57
0	1045	90.122416165027	58
0	1063	92.101545169552	59
0	1081	94.077530689373	60
0	1099	95.243281733546	61
0	1117	96.646147257717	62
0	1135	98.31677234948	63
0	1153	100.126449247192	64
0	1171	101.752749286893	65
0	1189	103.210477226016	66
0	1207	104.660847317262	67
0	1225	106.621388553709	68
0	1243	108.456476898	69
0	1261	109.965591135502	70
0	1279	111.915236695737	71
0	1297	113.620244000407	72
0	1315	115.219542407498	73
0	1333	116.591654899365	74
0	1351	117.909617779379	75
0	1369	119.692595559241	76
0	1387	120.701866463827	77
0	1405	122.123220509686	78
0	1423	123.445586792728	79
0	1441	124.935882359812	80
0	1459	126.196886223577	81
0	1477	127.338804571725	82
0	1495	128.84245775414	83
0	1513	130.036597520181	84
0	1531	131.069288865265	85
0	1549	132.134617799728	86
0	1567	133.380567407303	87
0	1585	134.996914661557	88
0	1603	136.17012402585	89
0	1621	138.056693627334	90
0	1639	139.626250563956	91
0	1657	141.092801604954	92
0	1675	142.686997312888	93
0	1693	144.683574054226	94
0	1711	145.918031802702	95
0	1729	147.682721881963	96
0	1747	148.945602159317	97
0	1765	150.655465292813	98
0	1783	152.074878895491	99
0	1801	153.770262097776	100
0	1819	154.811424784664	101
0	1837	155.833764281891	102
0	1855	157.722156765707	103
0	1873	159.438982802978	104
0	1891	160.87694110216	105
0	1909	162.092437785188	106
0	1927	163.951489450246	107
0	1945	165.909797317883	108
0	1963	167.479957565734	109
0	1981	168.694397489376	110
0	1999	169.927502000307	111
0	2017	171.06103731233	112
0	2035	173.052803227746	113
0	2053	174.303325709489	114
0	2071	175.782867328797	115
0	2089	177.07270938677	116
0	2107	178.247624888152	117
0	2125	180.057893933563	118
0	2143	181.696025735999	119
0	2161	183.41885495472	120
0	2179	185.266169827732	121
0	2197	186.945327134638	122
0	2215	188.431787348886	123
0	2233	189.732178004992	124
0	2251	190.977276603526	125
0	2269	192.690744641072	126
0	2287	193.734163496246	127
0	2305	195.321766170509	128
0	2323	196.656181033537	129
0	2341	198.047444745735	130
0	2359	199.994390947348	131
0	2377	201.72467093293	132
0	2395	203.519550527515	133
0	2413	205.505259742331	134
0	2431	206.8284769485	135
0	2449	208.197401174181	136
0	2467	209.358707731427	137
0	2485	211.014918405167	138
0	2503	212.81240862289	139
0	2521	214.270064039226	140
0	2539	216.098333393061	141
0	2557	217.518422291219	142
0	2575	219.175364960521	143
0	2593	220.224434927875	144
0	2611	221.384243037157	145
0	2629	222.645420284314	146
0	2647	224.20423513332	147
0	2665	225.991212102888	148
0	2683	227.071233495675	149
0	2701	228.997211285006	150
0	2719	230.667555385573	151
0	2737	232.391460937752	152
0	2755	233.971366195545	153
0	2773	235.372367339047	154
0	2791	237.117718774896	155
0	2809	238.347974335845	156
1	3	0.14297423212	0
1	3	0.14297423212	1
1	3	0.14297423212	2
1	21	1.196947350401	3
1	21	1.196947350401	4
1	21	1.196947350401	5
1	39	2.898247005638	6
1	39	2.898247005638	7
1	39	2.898247005638	8
1	57	4.305234240368	9
1	57	4.305234240368	10
1	57	4.305234240368	11
1	75	6.198128350553	12
1	75	6.198128350553	13
1	75	6.198128350553	14
1	93	7.993249404114	15
1	93	7.993249404114	16
1	93	7.993249404114	17
1	111	9.639950162214	18
1	111	9.639950162214	19
1	111	9.639950162214	20
1	129	11.088724266589	21
1	129	11.088724266589	22
1	129	11.088724266589	23
1	147	12.932493192096	24
1	147	12.932493192096	25
1	147	12.932493192096	26
1	165	14.413952482551	27
1	165	14.413952482551	28
1	165	14.413952482551	29
1	183	15.545394418329	30
1	183	15.545394418329	31
1	183	15.545394418329	32
1	201	17.413042269304	33
1	201	17.413042269304	34
1	201	17.413042269304	35
1	219	19.241533458017	36
1	219	19.241533458017	37
1	219	19.241533458017	38
1	237	20.539928562949	39
1	237	20.539928562949	40
1	237	20.539928562949	41
1	255	22.544706511204	42
1	255	22.544706511204	43
1	255	22.544706511204	44
1	273	23.898875440371	45
1	273	23.898875440371	46
1	273	23.898875440371	47
1	291	25.0584160853	48
1	291	25.0584160853	49
1	291	25.0584160853	50
1	309	26.370032735824	51
1	309	26.370032735824	52
1	309	26.370032735824	53
1	327	27.86703633931	54
1	327	27.86703633931	55
1	327	27.86703633931	56
1	345	29.143469290655	57
1	345	29.143469290655	58
1	345	29.143469290655	59
1	363	30.762584478192	60
1	363	30.762584478192	61
1	363	30.762584478192	62
1	381	32.188297370764	63
1	381	32.188297370764	64
1	381	32.188297370764	65
1	399	33.968742080278	66
1	399	33.968742080278	67
1	399	33.968742080278	68
1	417	35.852624342969	69
1	417	35.852624342969	70
1	417	35.852624342969	71
1	435	37.82835771154	72
1	435	37.82835771154	73
1	435	37.82835771154	74
1	453	39.069877767143	75
1	453	39.069877767143	76
1	453	39.069877767143	77
1	471	40.801133254728	78
1	471	40.801133254728	79
1	471	40.801133254728	80
1	489	42.429600171588	81
1	489	42.429600171588	82
1	489	42.429600171588	83
1	507	44.022076442993	84
1	507	44.022076442993	85
1	507	44.022076442993	86
1	525	45.874629144099	87
1	525	45.874629144099	88
1	525	45.874629144099	89
1	543	47.572529208648	90
1	543	47.572529208648	91
1	543	47.572529208648	92
1	561	49.409975617457	93
1	561	49.409975617457	94
1	561	49.409975617457	95
1	579	51.317672792528	96
1	579	51.317672792528	97
1	579	51.317672792528	98
1	597	52.369792293992	99
1	597	52.369792293992	100
1	597	52.369792293992	101
1	615	53.418581800669	102
1	615	53.418581800669	103
1	615	53.418581800669	104
1	633	54.830968180594	105
1	633	54.830968180594	106
1	633	54.830968180594	107
1	651	56.476487102017	108
1	651	56.476487102017	109
1	651	56.476487102017	110
1	669	58.134385856532	111
1	669	58.134385856532	112
1	669	58.134385856532	113
1	687	59.629718098877	114
1	687	59.629718098877	115
1	687	59.629718098877	116
1	705	61.156565877695	117
1	705	61.156565877695	118
1	705	61.156565877695	119
1	723	62.484764528086	120
1	723	62.484764528086	121
1	723	62.484764528086	122
1	741	64.37628087926	123
1	741	64.37628087926	124
1	741	64.37628087926	125
1	759	65.547636751202	126
1	759	65.547636751202	127
1	759	65.547636751202	128
1	777	67.380838099737	129
1	777	67.380838099737	130
1	777	67.380838099737	131
1	795	69.263884965632	132
1	795	69.263884965632	133
1	795	69.263884965632	134
1	813	71.028946412676	135
1	813	71.028946412676	136
1	813	71.028946412676	137
1	831	72.98748592096	138
1	831	72.98748592096	139
1	831	72.98748592096	140
1	849	74.155416629072	141
1	849	74.155416629072	142
1	849	74.155416629072	143
1	867	76.110957944637	144
1	867	76.110957944637	145
1	867	76.110957944637	146
1	885	77.403515301828	147
1	885	77.403515301828	148
1	885	77.403515301828	149
1	903	79.11953658799	150
1	903	79.11953658799	151
1	903	79.11953658799	152
1	921	80.28333950818	153
1	921	80.28333950818	154
1	921	80.28333950818	155
1	939	81.385873744506	156
1	939	81.385873744506	157
1	939	81.385873744506	158
1	957	82.441185375565	159
1	957	82.441185375565	160
1	957	82.441185375565	161
1	975	84.347320218143	162
1	975	84.347320218143	163
1	975	84.347320218143	164
1	993	85.750640622262	165
1	993	85.750640622262	166
1	993	85.750640622262	167
1	1011	86.996427787423	168
1	1011	86.996427787423	169
1	1011	86.996427787423	170
1	1029	88.284365409984	171
1	1029	88.284365409984	172
1	1029	88.284365409984	173
1	1047	90.143194136093	174
1	1047	90.143194136093	175
1	1047	90.143194136093	176
1	1065	92.122039724557	177
1	1065	92.122039724557	178
1	1065	92.122039724557	179
1	1083	94.09191223991	180
1	1083	94.09191223991	181
1	1083	94.09191223991	182
1	1101	95.262548919722	183
1	1101	95.262548919722	184
1	1101	95.262548919722	185
1	1119	96.675376587417	186
1	1119	96.675376587417	187
1	1119	96.675376587417	188
1	1137	98.332263458477	189
1	1137	98.332263458477	190
1	1137	98.332263458477	191
1	1155	100.142621755396	192
1	1155	100.142621755396	193
1	1155	100.142621755396	194
1	1173	101.791837644143	195
1	1173	101.791837644143	196
1	1173	101.791837644143	197
1	1191	103.238476125201	198
1	1191	103.238476125201	199
1	1191	103.238476125201	200
1	1209	104.680239184195	201
1	1209	104.680239184195	202
1	1209	104.680239184195	203
1	1227	106.643333037298	204
1	1227	106.643333037298	205
1	1227	106.643333037298	206
1	1245	108.468042897794	207
1	1245	108.468042897794	208
1	1245	108.468042897794	209
1	1263	109.985317160247	210
1	1263	109.985317160247	211
1	1263	109.985317160247	212
1	1281	111.940922469807	213
1	1281	111.940922469807	214
1	1281	111.940922469807	215
1	1299	113.632426630964	216
1	1299	113.632426630964	217
1	1299	113.632426630964	218
1	1317	115.234759965678	219
1	1317	115.234759965678	220
1	1317	115.234759965678	221
1	1335	116.619963828245	222
1	1335	116.619963828245	223
1	1335	116.619963828245	224
1	1353	117.919800586077	225
1	1353	117.919800586077	226
1	1353	117.919800586077	227
1	1371	119.704527241911	228
1	1371	119.704527241911	229
1	1371	119.704527241911	230
1	1389	120.711929161336	231
1	1389	120.711929161336	232
1	1389	120.711929161336	233
1	1407	122.143278864188	234
1	1407	122.143278864188	235
1	1407	122.143278864188	236
1	1425	123.467516694569	237
1	1425	123.467516694569	238
1	1425	123.467516694569	239
1	1443	124.94720715945	240
1	1443	124.94720715945	241
1	1443	124.94720715945	242
1	1461	126.20781768498	243
1	1461	126.20781768498	244
1	1461	126.20781768498	245
1	1479	127.352948140947	246
1	1479	127.352948140947	247
1	1479	127.352948140947	248
1	1497	128.859574452975	249
1	1497	128.859574452975	250
1	1497	128.859574452975	251
1	1515	130.050853210474	252
1	1515	130.050853210474	253
1	1515	130.050853210474	254
1	1533	131.09337803617	255
1	1533	131.09337803617	256
1	1533	131.09337803617	257
1	1551	132.145828488122	258
1	1551	132.145828488122	259
1	1551	132.145828488122	260
1	1569	133.404083951269	261
1	1569	133.404083951269	262
1	1569	133.404083951269	263
1	1587	135.009574907156	264
1	1587	135.009574907156	265
1	1587	135.009574907156	266
1	1605	136.186763234643	267
1	1605	136.186763234643	268
1	1605	136.186763234643	269
1	1623	138.073157811534	270
1	1623	138.073157811534	271
1	1623	138.073157811534	272
1	1641	139.641161957842	273
1	1641	139.641161957842	274
1	1641	139.641161957842	275
1	1659	141.108993907912	276
1	1659	141.108993907912	277
1	1659	141.108993907912	278
1	1677	142.706423164272	279
1	1677	142.706423164272	280
1	1677	142.706423164272	281
1	1695	144.695693449634	282
1	1695	144.695693449634	283
1	1695	144.695693449634	284
1	1713	145.941481435979	285
1	1713	145.941481435979	286
1	1713	145.941481435979	287
1	1731	147.704082212976	288
1	1731	147.704082212976	289
1	1731	147.704082212976	290
1	1749	148.957607686238	291
1	1749	148.957607686238	292
1	1749	148.957607686238	293
1	1767	150.673656604363	294
1	1767	150.673656604363	295
1	1767	150.673656604363	296
1	1785	152.088661325522	297
1	1785	152.088661325522	298
1	1785	152.088661325522	299
1	1803	153.793136547321	300
1	1803	153.793136547321	301
1	1803	153.793136547321	302
1	1821	154.839146735804	303
1	1821	154.839146735804	304
1	1821	154.839146735804	305
1	1839	155.85212643209	306
1	1839	155.85212643209	307
1	1839	155.85212643209	308
1	1857	157.738274396883	309
1	1857	157.738274396883	310
1	1857	157.738274396883	311
1	1875	159.454443102525	312
1	1875	159.454443102525	313
1	1875	159.454443102525	314
1	1893	160.892721660595	315
1	1893	160.892721660595	316
1	1893	160.892721660595	317
1	1911	162.111781580449	318
1	1911	162.111781580449	319
1	1911	162.111781580449	320
1	1929	163.964622660999	321
1	1929	163.964622660999	322
1	1929	163.964622660999	323
1	1947	165.927895202528	324
1	1947	165.927895202528	325
1	1947	165.927895202528	326
1	1965	167.497678348268	327
1	1965	167.497678348268	328
1	1965	167.497678348268	329
1	1983	168.716743032995	330
1	1983	168.716743032995	331
1	1983	168.716743032995	332
1	2001	169.949921581001	333
1	2001	169.949921581001	334
1	2001	169.949921581001	335
1	2019	171.075558688923	336
1	2019	171.075558688923	337
1	2019	171.075558688923	338
1	2037	173.069962650991	339
1	2037	173.069962650991	340
1	2037	173.069962650991	341
1	2055	174.320623301136	342
1	2055	174.320623301136	343
1	2055	174.320623301136	344
1	2073	175.797443182466	345
1	2073	175.797443182466	346
1	2073	175.797443182466	347
1	2091	177.083755495181	348
1	2091	177.083755495181	349
1	2091	177.083755495181	350
1	2109	178.270071422702	351
1	2109	178.270071422702	352
1	2109	178.270071422702	353
1	2127	180.070771368725	354
1	2127	180.070771368725	355
1	2127	180.070771368725	356
1	2145	181.713882023392	357
1	2145	181.713882023392	358
1	2145	181.713882023392	359
1	2163	183.454503819246	360
1	2163	183.454503819246	361
1	2163	183.454503819246	362
1	2181	185.277179838161	363
1	2181	185.277179838161	364
1	2181	185.277179838161	365
1	2199	186.957366977924	366
1	2199	186.957366977924	367
1	2199	186.957366977924	368
1	2217	188.470335813303	369
1	2217	188.470335813303	370
1	2217	188.470335813303	371
1	2235	189.743421716036	372
1	2235	189.743421716036	373
1	2235	189.743421716036	374
1	2253	190.990856741854	375
1	2253	190.990856741854	376
1	2253	190.990856741854	377
1	2271	192.706127506818	378
1	2271	192.706127506818	379
1	2271	192.706127506818	380
1	2289	193.744720711624	381
1	2289	193.744720711624	382
1	2289	193.744720711624	383
1	2307	195.346136829713	384
1	2307	195.346136829713	385
1	2307	195.346136829713	386
1	2325	196.673838420908	387
1	2325	196.673838420908	388
1	2325	196.673838420908	389
1	2343	198.068982324535	390
1	2343	198.068982324535	391
1	2343	198.068982324535	392
1	2361	200.018868278597	393
1	2361	200.018868278597	394
1	2361	200.018868278597	395
1	2379	201.760915051436	396
1	2379	201.760915051436	397
1	2379	201.760915051436	398
1	2397	203.538483714924	399
1	2397	203.538483714924	400
1	2397	203.538483714924	401
1	2415	205.520230782993	402
1	2415	205.520230782993	403
1	2415	205.520230782993	404
1	2433	206.873233089026	405
1	2433	206.873233089026	406
1	2433	206.873233089026	407
1	2451	208.209394866816	408
1	2451	208.209394866816	409
1	2451	208.209394866816	410
1	2469	209.387321606484	411
1	2469	209.387321606484	412
1	2469	209.387321606484	413
1	2487	211.032446143236	414
1	2487	211.032446143236	415
1	2487	211.032446143236	416
1	2505	212.840717068791	417
1	2505	212.840717068791	418
1	2505	212.840717068791	419
1	2523	214.298067975245	420
1	2523	214.298067975245	421
1	2523	214.298067975245	422
1	2541	216.144498977095	423
1	2541	216.144498977095	424
1	2541	216.144498977095	425
1	2559	217.572624816193	426
1	2559	217.572624816193	427
1	2559	217.572624816193	428
1	2577	219.189443188585	429
1	2577	219.189443188585	430
1	2577	219.189443188585	431
1	2595	220.251386028131	432
1	2595	220.251386028131	433
1	2595	220.251386028131	434
1	2613	221.408364667045	435
1	2613	221.408364667045	436
1	2613	221.408364667045	437
1	2631	222.656295318754	438
1	2631	222.656295318754	439
1	2631	222.656295318754	440
1	2649	224.220826279485	441
1	2649	224.220826279485	442
1	2649	224.220826279485	443
1	2667	226.006896150866	444
1	2667	226.006896150866	445
1	2667	226.006896150866	446
1	2685	227.091847223685	447
1	2685	227.091847223685	448
1	2685	227.091847223685	449
1	2703	229.02086788893	450
1	2703	229.02086788893	451
1	2703	229.02086788893	452
1	2721	230.683636344971	453
1	2721	230.683636344971	454
1	2721	230.683636344971	455
1	2739	232.403750777951	456
1	2739	232.403750777951	457
1	2739	232.403750777951	458
1	2757	233.985228014997	459
1	2757	233.985228014997	460
1	2757	233.985228014997	461
1	2775	235.387679516298	462
1	2775	235.387679516298	463
1	2775	235.387679516298	464
1	2793	237.130895489838	465
1	2793	237.130895489838	466
1	2793	237.130895489838	467
1	2811	238.362478810766	468
1	2811	238.362478810766	469
1	2811	238.362478810766	470
2	7	0.160124635094	0
2	7	0.160124635094	1
2	7	0.160124635094	2
2	26	1.217421145833	3
2	26	1.217421145833	4
2	26	1.217421145833	5
2	44	2.920060574454	6
2	44	2.920060574454	7
2	44	2.920060574454	8
2	65	4.352529350006	9
2	65	4.352529350006	10
2	65	4.352529350006	11
2	79	6.210677976335	12
2	79	6.210677976335	13
2	79	6.210677976335	14
2	97	8.006506394013	15
2	97	8.006506394013	16
2	97	8.006506394013	17
2	116	9.663683794412	18
2	116	9.663683794412	19
2	116	9.663683794412	20
2	133	11.099359299068	21
2	133	11.099359299068	22
2	133	11.099359299068	23
2	151	12.943186365151	24
2	151	12.943186365151	25
2	151	12.943186365151	26
2	170	14.435397320829	27
2	170	14.435397320829	28
2	170	14.435397320829	29
2	188	15.569049627568	30
2	188	15.569049627568	31
2	188	15.569049627568	32
2	205	17.438410498028	33
2	205	17.438410498028	34
2	205	17.438410498028	35
2	224	19.257608280004	36
2	224	19.257608280004	37
2	224	19.257608280004	38
2	241	20.552277857145	39
2	241	20.552277857145	40
2	241	20.552277857145	41
2	259	22.555301161206	42
2	259	22.555301161206	43
2	259	22.555301161206	44
2	278	23.913041031828	45
2	278	23.913041031828	46
2	278	23.913041031828	47
2	295	25.072865021182	48
2	295	25.072865021182	49
2	295	25.072865021182	50
2	321	26.415654955481	51
2	321	26.415654955481	52
2	321	26.415654955481	53
2	331	27.894975229718	54
2	331	27.894975229718	55
2	331	27.894975229718	56
2	350	29.161222553208	57
2	350	29.161222553208	58
2	350	29.161222553208	59
2	372	30.802251582912	60
2	372	30.802251582912	61
2	372	30.802251582912	62
2	393	32.236442891833	63
2	393	32.236442891833	64
2	393	32.236442891833	65
2	403	33.979537884798	66
2	403	33.979537884798	67
2	403	33.979537884798	68
2	422	35.872266990578	69
2	422	35.872266990578	70
2	422	35.872266990578	71
2	439	37.838665514003	72
2	439	37.838665514003	73
2	439	37.838665514003	74
2	458	39.085665627562	75
2	458	39.085665627562	76
2	458	39.085665627562	77
2	476	40.814356714031	78
2	476	40.814356714031	79
2	476	40.814356714031	80
2	497	42.451843837841	81
2	497	42.451843837841	82
2	497	42.451843837841	83
2	516	44.051530196106	84
2	516	44.051530196106	85
2	516	44.051530196106	86
2	533	45.899770567899	87
2	533	45.899770567899	88
2	533	45.899770567899	89
2	547	47.583114747401	90
2	547	47.583114747401	91
2	547	47.583114747401	92
2	565	49.431025571014	93
2	565	49.431025571014	94
2	565	49.431025571014	95
2	588	51.342032507115	96
2	588	51.342032507115	97
2	588	51.342032507115	98
2	609	52.420355554546	99
2	609	52.420355554546	100
2	609	52.420355554546	101
2	619	53.436238454244	102
2	619	53.436238454244	103
2	619	53.436238454244	104
2	637	54.84822993685	105
2	637	54.84822993685	106
2	637	54.84822993685	107
2	655	56.48963958077	108
2	655	56.48963958077	109
2	655	56.48963958077	110
2	673	58.144787427108	111
2	673	58.144787427108	112
2	673	58.144787427108	113
2	692	59.647779753522	114
2	692	59.647779753522	115
2	692	59.647779753522	116
2	710	61.174418018966	117
2	710	61.174418018966	118
2	710	61.174418018966	119
2	732	62.520080664803	120
2	732	62.520080664803	121
2	732	62.520080664803	122
2	745	64.388144054772	123
2	745	64.388144054772	124
2	745	64.388144054772	125
2	768	65.58120345834	126
2	768	65.58120345834	127
2	768	65.58120345834	128
2	786	67.415318349353	129
2	786	67.415318349353	130
2	786	67.415318349353	131
2	799	69.280703667126	132
2	799	69.280703667126	133
2	799	69.280703667126	134
2	817	71.052341773478	135
2	817	71.052341773478	136
2	817	71.052341773478	137
2	836	73.003563445858	138
2	836	73.003563445858	139
2	836	73.003563445858	140
2	853	74.169788733495	141
2	853	74.169788733495	142
2	853	74.169788733495	143
2	872	76.130640326783	144
2	872	76.130640326783	145
2	872	76.130640326783	146
2	893	77.436038917232	147
2	893	77.436038917232	148
2	893	77.436038917232	149
2	907	79.130677810268	150
2	907	79.130677810268	151
2	907	79.130677810268	152
2	925	80.295235892349	153
2	925	80.295235892349	154
2	925	80.295235892349	155
2	944	81.405770814443	156
2	944	81.405770814443	157
2	944	81.405770814443	158
2	962	82.458328528802	159
2	962	82.458328528802	160
2	962	82.458328528802	161
2	979	84.362864593052	162
2	979	84.362864593052	163
2	979	84.362864593052	164
2	997	85.761470229761	165
2	997	85.761470229761	166
2	997	85.761470229761	167
2	1016	87.016005045813	168
2	1016	87.016005045813	169
2	1016	87.016005045813	170
2	1033	88.29629533245	171
2	1033	88.29629533245	172
2	1033	88.29629533245	173
2	1051	90.163972353535	174
2	1051	90.163972353535	175
2	1051	90.163972353535	176
2	1069	92.135250803343	177
2	1069	92.135250803343	178
2	1069	92.135250803343	179
2	1088	94.114755003889	180
2	1088	94.114755003889	181
2	1088	94.114755003889	182
2	1113	95.311838389777	183
2	1113	95.311838389777	184
2	1113	95.311838389777	185
2	1123	96.697639994125	186
2	1123	96.697639994125	187
2	1123	96.697639994125	188
2	1145	98.360904279045	189
2	1145	98.360904279045	190
2	1145	98.360904279045	191
2	1160	100.157762911492	192
2	1160	100.157762911492	193
2	1160	100.157762911492	194
2	1178	101.813446775553	195
2	1178	101.813446775553	196
2	1178	101.813446775553	197
2	1196	103.260445664296	198
2	1196	103.260445664296	199
2	1196	103.260445664296	200
2	1214	104.712395071905	201
2	1214	104.712395071905	202
2	1214	104.712395071905	203
2	1235	106.666822210406	204
2	1235	106.666822210406	205
2	1235	106.666822210406	206
2	1249	108.48414904585	207
2	1249	108.48414904585	208
2	1249	108.48414904585	209
2	1267	109.99689564987	210
2	1267	109.99689564987	211
2	1267	109.99689564987	212
2	1285	111.951979042203	213
2	1285	111.951979042203	214
2	1285	111.951979042203	215
2	1304	113.652706678525	216
2	1304	113.652706678525	217
2	1304	113.652706678525	218
2	1322	115.250004852227	219
2	1322	115.250004852227	220
2	1322	115.250004852227	221
2	1343	116.644530208953	222
2	1343	116.644530208953	223
2	1343	116.644530208953	224
2	1357	117.935804942172	225
2	1357	117.935804942172	226
2	1357	117.935804942172	227
2	1380	119.738546229161	228
2	1380	119.738546229161	229
2	1380	119.738546229161	230
2	1393	120.722609766956	231
2	1393	120.722609766956	232
2	1393	120.722609766956	233
2	1411	122.153469921207	234
2	1411	122.153469921207	235
2	1411	122.153469921207	236
2	1429	123.48614532154	237
2	1429	123.48614532154	238
2	1429	123.48614532154	239
2	1448	124.958094944205	240
2	1448	124.958094944205	241
2	1448	124.958094944205	242
2	1465	126.219634978686	243
2	1465	126.219634978686	244
2	1465	126.219634978686	245
2	1483	127.363261007441	246
2	1483	127.363261007441	247
2	1483	127.363261007441	248
2	1501	128.878773460648	249
2	1501	128.878773460648	250
2	1501	128.878773460648	251
2	1520	130.069663676249	252
2	1520	130.069663676249	253
2	1520	130.069663676249	254
2	1537	131.11339479908	255
2	1537	131.11339479908	256
2	1537	131.11339479908	257
2	1556	132.165242087189	258
2	1556	132.165242087189	259
2	1556	132.165242087189	260
2	1574	133.426306912932	261
2	1574	133.426306912932	262
2	1574	133.426306912932	263
2	1592	135.025018374915	264
2	1592	135.025018374915	265
2	1592	135.025018374915	266
2	1609	136.212157338562	267
2	1609	136.212157338562	268
2	1609	136.212157338562	269
2	1627	138.086018723798	270
2	1627	138.086018723798	271
2	1627	138.086018723798	272
2	1645	139.658685144641	273
2	1645	139.658685144641	274
2	1645	139.658685144641	275
2	1663	141.123260631907	276
2	1663	141.123260631907	277
2	1663	141.123260631907	278
2	1682	142.735846326882	279
2	1682	142.735846326882	280
2	1682	142.735846326882	281
2	1699	144.713155369444	282
2	1699	144.713155369444	283
2	1699	144.713155369444	284
2	1718	145.984508600759	285
2	1718	145.984508600759	286
2	1718	145.984508600759	287
2	1735	147.720920772334	288
2	1735	147.720920772334	289
2	1735	147.720920772334	290
2	1757	148.981101262081	291
2	1757	148.981101262081	292
2	1757	148.981101262081	293
2	1775	150.70510666565	294
2	1775	150.70510666565	295
2	1775	150.70510666565	296
2	1794	152.147410986722	297
2	1794	152.147410986722	298
2	1794	152.147410986722	299
2	1807	153.811693038488	300
2	1807	153.811693038488	301
2	1807	153.811693038488	302
2	1826	154.857943443602	303
2	1826	154.857943443602	304
2	1826	154.857943443602	305
2	1843	155.86310894505	306
2	1843	155.86310894505	307
2	1843	155.86310894505	308
2	1861	157.75199142704	309
2	1861	157.75199142704	310
2	1861	157.75199142704	311
2	1879	159.465475613599	312
2	1879	159.465475613599	313
2	1879	159.465475613599	314
2	1902	160.919475609604	315
2	1902	160.919475609604	316
2	1902	160.919475609604	317
2	1915	162.123699357571	318
2	1915	162.123699357571	319
2	1915	162.123699357571	320
2	1937	164.006509942434	321
2	1937	164.006509942434	322
2	1937	164.006509942434	323
2	1956	165.96268600672	324
2	1956	165.96268600672	325
2	1956	165.96268600672	326
2	1973	167.519498594358	327
2	1973	167.519498594358	328
2	1973	167.519498594358	329
2	1988	168.729462025875	330
2	1988	168.729462025875	331
2	1988	168.729462025875	332
2	2005	169.963742304469	333
2	2005	169.963742304469	334
2	2005	169.963742304469	335
2	2024	171.100025999042	336
2	2024	171.100025999042	337
2	2024	171.100025999042	338
2	2041	173.09034177037	339
2	2041	173.09034177037	340
2	2041	173.09034177037	341
2	2059	174.33533374129	342
2	2059	174.33533374129	343
2	2059	174.33533374129	344
2	2077	175.816435368836	345
2	2077	175.816435368836	346
2	2077	175.816435368836	347
2	2099	177.137259349659	348
2	2099	177.137259349659	349
2	2099	177.137259349659	350
2	2114	178.294394743996	351
2	2114	178.294394743996	352
2	2114	178.294394743996	353
2	2131	180.08434924142	354
2	2131	180.08434924142	355
2	2131	180.08434924142	356
2	2149	181.726515234278	357
2	2149	181.726515234278	358
2	2149	181.726515234278	359
2	2168	183.47910086563	360
2	2168	183.47910086563	361
2	2168	183.47910086563	362
2	2186	185.30167001609	363
2	2186	185.30167001609	364
2	2186	185.30167001609	365
2	2203	186.96755518725	366
2	2203	186.96755518725	367
2	2203	186.96755518725	368
2	2222	188.490956194533	369
2	2222	188.490956194533	370
2	2222	188.490956194533	371
2	2244	189.778841472368	372
2	2244	189.778841472368	373
2	2244	189.778841472368	374
2	2261	191.019922604544	375
2	2261	191.019922604544	376
2	2261	191.019922604544	377
2	2275	192.718546009969	378
2	2275	192.718546009969	379
2	2275	192.718546009969	380
2	2294	193.763390434745	381
2	2294	193.763390434745	382
2	2294	193.763390434745	383
2	2315	195.37832360481	384
2	2315	195.37832360481	385
2	2315	195.37832360481	386
2	2330	196.695911114498	387
2	2330	196.695911114498	388
2	2330	196.695911114498	389
2	2348	198.094698182636	390
2	2348	198.094698182636	391
2	2348	198.094698182636	392
2	2369	200.049360285943	393
2	2369	200.049360285943	394
2	2369	200.049360285943	395
2	2383	201.776134439917	396
2	2383	201.776134439917	397
2	2383	201.776134439917	398
2	2401	203.558081482409	399
2	2401	203.558081482409	400
2	2401	203.558081482409	401
2	2419	205.533318068957	402
2	2419	205.533318068957	403
2	2419	205.533318068957	404
2	2438	206.900891915944	405
2	2438	206.900891915944	406
2	2438	206.900891915944	407
2	2455	208.235064520372	408
2	2455	208.235064520372	409
2	2455	208.235064520372	410
2	2474	209.403123358276	411
2	2474	209.403123358276	412
2	2474	209.403123358276	413
2	2491	211.061195689022	414
2	2491	211.061195689022	415
2	2491	211.061195689022	416
2	2517	212.87649817693	417
2	2517	212.87649817693	418
2	2517	212.87649817693	419
2	2527	214.308418740295	420
2	2527	214.308418740295	421
2	2527	214.308418740295	422
2	2546	216.164566823171	423
2	2546	216.164566823171	424
2	2546	216.164566823171	425
2	2563	217.590527460624	426
2	2563	217.590527460624	427
2	2563	217.590527460624	428
2	2581	219.199702366288	429
2	2581	219.199702366288	430
2	2581	219.199702366288	431
2	2607	220.307453815677	432
2	2607	220.307453815677	433
2	2607	220.307453815677	434
2	2622	221.442016127653	435
2	2622	221.442016127653	436
2	2622	221.442016127653	437
2	2635	222.672468910958	438
2	2635	222.672468910958	439
2	2635	222.672468910958	440
2	2654	224.235748237168	441
2	2654	224.235748237168	442
2	2654	224.235748237168	443
2	2671	226.02121243947	444
2	2671	226.02121243947	445
2	2671	226.02121243947	446
2	2690	227.107960215376	447
2	2690	227.107960215376	448
2	2690	227.107960215376	449
2	2707	229.036128123447	450
2	2707	229.036128123447	451
2	2707	229.036128123447	452
2	2729	230.718438970417	453
2	2729	230.718438970417	454
2	2729	230.718438970417	455
2	2743	232.414747243015	456
2	2743	232.414747243015	457
2	2743	232.414747243015	458
2	2761	234.004051048289	459
2	2761	234.004051048289	460
2	2761	234.004051048289	461
2	2787	235.43844260749	462
2	2787	235.43844260749	463
2	2787	235.43844260749	464
2	2802	237.163522978208	465
2	2802	237.163522978208	466
2	2802	237.163522978208	467
2	2816	238.374929226501	468
2	2816	238.374929226501	469
2	2816	238.374929226501	470
3	11	0.170313894915	0
3	11	0.170313894915	1
3	11	0.170313894915	2
3	33	1.229148450705	3
3	33	1.229148450705	4
3	33	1.229148450705	5
3	51	2.93192016363	6
3	51	2.93192016363	7
3	51	2.93192016363	8
3	66	4.355085224167	9
3	66	4.355085224167	10
3	66	4.355085224167	11
3	87	6.234467487691	12
3	87	6.234467487691	13
3	87	6.234467487691	14
3	105	8.030801690429	15
3	105	8.030801690429	16
3	105	8.030801690429	17
3	123	9.676374973115	18
3	123	9.676374973115	19
3	123	9.676374973115	20
3	141	11.113208500678	21
3	141	11.113208500678	22
3	141	11.113208500678	23
3	159	12.955122966496	24
3	159	12.955122966496	25
3	159	12.955122966496	26
3	174	14.444803673776	27
3	174	14.444803673776	28
3	174	14.444803673776	29
3	195	15.586234191042	30
3	195	15.586234191042	31
3	195	15.586234191042	32
3	209	17.450496137156	33
3	209	17.450496137156	34
3	209	17.450496137156	35
3	228	19.264757028597	36
3	228	19.264757028597	37
3	228	19.264757028597	38
3	249	20.585079933532	39
3	249	20.585079933532	40
3	249	20.585079933532	41
3	267	22.567765256144	42
3	267	22.567765256144	43
3	267	22.567765256144	44
3	282	23.92298123183	45
3	282	23.92298123183	46
3	282	23.92298123183	47
3	300	25.090596966718	48
3	300	25.090596966718	49
3	300	25.090596966718	50
3	317	26.397368571553	51
3	317	26.397368571553	52
3	317	26.397368571553	53
3	339	27.93135564668	54
3	339	27.93135564668	55
3	339	27.93135564668	56
3	357	29.172125237777	57
3	357	29.172125237777	58
3	357	29.172125237777	59
3	371	30.795106928319	60
3	371	30.795106928319	61
3	371	30.795106928319	62
3	389	32.216053234054	63
3	389	32.216053234054	64
3	389	32.216053234054	65
3	408	33.990882586441	66
3	408	33.990882586441	67
3	408	33.990882586441	68
3	429	35.890365625966	69
3	429	35.890365625966	70
3	429	35.890365625966	71
3	444	37.849453654183	72
3	444	37.849453654183	73
3	444	37.849453654183	74
3	465	39.095970828024	75
3	465	39.095970828024	76
3	465	39.095970828024	77
3	483	40.831074897322	78
3	483	40.831074897322	79
3	483	40.831074897322	80
3	501	42.494558217734	81
3	501	42.494558217734	82
3	501	42.494558217734	83
3	515	44.044399925951	84
3	515	44.044399925951	85
3	515	44.044399925951	86
3	537	45.916350705112	87
3	537	45.916350705112	88
3	537	45.916350705112	89
3	555	47.605699589922	90
3	555	47.605699589922	91
3	555	47.605699589922	92
3	573	49.454616393713	93
3	573	49.454616393713	94
3	573	49.454616393713	95
3	587	51.340926773203	96
3	587	51.340926773203	97
3	587	51.340926773203	98
3	605	52.399273801445	99
3	605	52.399273801445	100
3	605	52.399273801445	101
3	627	53.451556071304	102
3	627	53.451556071304	103
3	627	53.451556071304	104
3	645	54.867578143767	105
3	645	54.867578143767	106
3	645	54.867578143767	107
3	659	56.502381630536	108
3	659	56.502381630536	109
3	659	56.502381630536	110
3	678	58.159669466348	111
3	678	58.159669466348	112
3	678	58.159669466348	113
3	699	59.684270166242	114
3	699	59.684270166242	115
3	699	59.684270166242	116
3	714	61.184288618157	117
3	714	61.184288618157	118
3	714	61.184288618157	119
3	731	62.512553917874	120
3	731	62.512553917874	121
3	731	62.512553917874	122
3	750	64.403684073455	123
3	750	64.403684073455	124
3	750	64.403684073455	125
3	767	65.57122518198	126
3	767	65.57122518198	127
3	767	65.57122518198	128
3	785	67.414429385996	129
3	785	67.414429385996	130
3	785	67.414429385996	131
3	807	69.291633387425	132
3	807	69.291633387425	133
3	807	69.291633387425	134
3	821	71.063107168326	135
3	821	71.063107168326	136
3	821	71.063107168326	137
3	840	73.009904551242	138
3	840	73.009904551242	139
3	840	73.009904551242	140
3	861	74.209594613758	141
3	861	74.209594613758	142
3	861	74.209594613758	143
3	879	76.141861787238	144
3	879	76.141861787238	145
3	879	76.141861787238	146
3	897	77.448055461961	147
3	897	77.448055461961	148
3	897	77.448055461961	149
3	911	79.142018923798	150
3	911	79.142018923798	151
3	911	79.142018923798	152
3	929	80.305568653255	153
3	929	80.305568653255	154
3	929	80.305568653255	155
3	951	81.426561352764	156
3	951	81.426561352764	157
3	951	81.426561352764	158
3	969	82.468570704828	159
3	969	82.468570704828	160
3	969	82.468570704828	161
3	984	84.376183189103	162
3	984	84.376183189103	163
3	984	84.376183189103	164
3	1005	85.789612038501	165
3	1005	85.789612038501	166
3	1005	85.789612038501	167
3	1020	87.01718428267	168
3	1020	87.01718428267	169
3	1020	87.01718428267	170
3	1041	88.317382635526	171
3	1041	88.317382635526	172
3	1041	88.317382635526	173
3	1059	90.187907794951	174
3	1059	90.187907794951	175
3	1059	90.187907794951	176
3	1077	92.165810443711	177
3	1077	92.165810443711	178
3	1077	92.165810443711	179
3	1095	94.130960372649	180
3	1095	94.130960372649	181
3	1095	94.130960372649	182
3	1109	95.2873400185	183
3	1109	95.2873400185	184
3	1109	95.2873400185	185
3	1127	96.709938426385	186
3	1127	96.709938426385	187
3	1127	96.709938426385	188
3	1149	98.376006077783	189
3	1149	98.376006077783	190
3	1149	98.376006077783	191
3	1164	100.164087468853	192
3	1164	100.164087468853	193
3	1164	100.164087468853	194
3	1182	101.818694346572	195
3	1182	101.818694346572	196
3	1182	101.818694346572	197
3	1200	103.268392289789	198
3	1200	103.268392289789	199
3	1200	103.268392289789	200
3	1221	104.741187335823	201
3	1221	104.741187335823	202
3	1221	104.741187335823	203
3	1239	106.679316838346	204
3	1239	106.679316838346	205
3	1239	106.679316838346	206
3	1257	108.516511624745	207
3	1257	108.516511624745	208
3	1257	108.516511624745	209
3	1275	110.012611446548	210
3	1275	110.012611446548	211
3	1275	110.012611446548	212
3	1290	111.962254219594	213
3	1290	111.962254219594	214
3	1290	111.962254219594	215
3	1311	113.665463161809	216
3	1311	113.665463161809	217
3	1311	113.665463161809	218
3	1326	115.259466873332	219
3	1326	115.259466873332	220
3	1326	115.259466873332	221
3	1344	116.645016928785	222
3	1344	116.645016928785	223
3	1344	116.645016928785	224
3	1362	117.949661925304	225
3	1362	117.949661925304	226
3	1362	117.949661925304	227
3	1379	119.734731069775	228
3	1379	119.734731069775	229
3	1379	119.734731069775	230
3	1398	120.740811619083	231
3	1398	120.740811619083	232
3	1398	120.740811619083	233
3	1415	122.164797842072	234
3	1415	122.164797842072	235
3	1415	122.164797842072	236
3	1434	123.506577444131	237
3	1434	123.506577444131	238
3	1434	123.506577444131	239
3	1455	124.980095946068	240
3	1455	124.980095946068	241
3	1455	124.980095946068	242
3	1470	126.237488287947	243
3	1470	126.237488287947	244
3	1470	126.237488287947	245
3	1488	127.37332283598	246
3	1488	127.37332283598	247
3	1488	127.37332283598	248
3	1509	128.930840610465	249
3	1509	128.930840610465	250
3	1509	128.930840610465	251
3	1527	130.080475714412	252
3	1527	130.080475714412	253
3	1527	130.080475714412	254
3	1545	131.142148980344	255
3	1545	131.142148980344	256
3	1545	131.142148980344	257
3	1560	132.17488174296	258
3	1560	132.17488174296	259
3	1560	132.17488174296	260
3	1578	133.429905745537	261
3	1578	133.429905745537	262
3	1578	133.429905745537	263
3	1599	135.046084186841	264
3	1599	135.046084186841	265
3	1599	135.046084186841	266
3	1614	136.227577347088	267
3	1614	136.227577347088	268
3	1614	136.227577347088	269
3	1635	138.128811061183	270
3	1635	138.128811061183	271
3	1635	138.128811061183	272
3	1653	139.674857760373	273
3	1653	139.674857760373	274
3	1653	139.674857760373	275
3	1667	141.148133165328	276
3	1667	141.148133165328	277
3	1667	141.148133165328	278
3	1689	142.747781170668	279
3	1689	142.747781170668	280
3	1689	142.747781170668	281
3	1707	144.726813906359	282
3	1707	144.726813906359	283
3	1707	144.726813906359	284
3	1722	145.994085791256	285
3	1722	145.994085791256	286
3	1722	145.994085791256	287
3	1740	147.738780308615	288
3	1740	147.738780308615	289
3	1740	147.738780308615	290
3	1758	148.983356791037	291
3	1758	148.983356791037	292
3	1758	148.983356791037	293
3	1779	150.723553892713	294
3	1779	150.723553892713	295
3	1779	150.723553892713	296
3	1793	152.145845215414	297
3	1793	152.145845215414	298
3	1793	152.145845215414	299
3	1811	153.823824171151	300
3	1811	153.823824171151	301
3	1811	153.823824171151	302
3	1830	154.865484379353	303
3	1830	154.865484379353	304
3	1830	154.865484379353	305
3	1848	155.894579335526	306
3	1848	155.894579335526	307
3	1848	155.894579335526	308
3	1866	157.7637198619	309
3	1866	157.7637198619	310
3	1866	157.7637198619	311
3	1884	159.478678415919	312
3	1884	159.478678415919	313
3	1884	159.478678415919	314
3	1901	160.919415806371	315
3	1901	160.919415806371	316
3	1901	160.919415806371	317
3	1923	162.137557301908	318
3	1923	162.137557301908	319
3	1923	162.137557301908	320
3	1938	164.010919187589	321
3	1938	164.010919187589	322
3	1938	164.010919187589	323
3	1955	165.957734047751	324
3	1955	165.957734047751	325
3	1955	165.957734047751	326
3	1977	167.530273500306	327
3	1977	167.530273500306	328
3	1977	167.530273500306	329
3	1995	168.74672536572	330
3	1995	168.74672536572	331
3	1995	168.74672536572	332
3	2010	169.974415983755	333
3	2010	169.974415983755	334
3	2010	169.974415983755	335
3	2031	171.113140053056	336
3	2031	171.113140053056	337
3	2031	171.113140053056	338
3	2049	173.109799253923	339
3	2049	173.109799253923	340
3	2049	173.109799253923	341
3	2067	174.363787013458	342
3	2067	174.363787013458	343
3	2067	174.363787013458	344
3	2082	175.834004086208	345
3	2082	175.834004086208	346
3	2082	175.834004086208	347
3	2100	177.138756133817	348
3	2100	177.138756133817	349
3	2100	177.138756133817	350
3	2118	178.296870201546	351
3	2118	178.296870201546	352
3	2118	178.296870201546	353
3	2135	180.095890853253	354
3	2135	180.095890853253	355
3	2135	180.095890853253	356
3	2157	181.746152400498	357
3	2157	181.746152400498	358
3	2157	181.746152400498	359
3	2175	183.509594322821	360
3	2175	183.509594322821	361
3	2175	183.509594322821	362
3	2193	185.318680892184	363
3	2193	185.318680892184	364
3	2193	185.318680892184	365
3	2211	186.988550657129	366
3	2211	186.988550657129	367
3	2211	186.988550657129	368
3	2229	188.502134766286	369
3	2229	188.502134766286	370
3	2229	188.502134766286	371
3	2243	189.772838008156	372
3	2243	189.772838008156	373
3	2243	189.772838008156	374
3	2262	191.021830379541	375
3	2262	191.021830379541	376
3	2262	191.021830379541	377
3	2283	192.748825103156	378
3	2283	192.748825103156	379
3	2283	192.748825103156	380
3	2298	193.771582339409	381
3	2298	193.771582339409	382
3	2298	193.771582339409	383
3	2316	195.380230584963	384
3	2316	195.380230584963	385
3	2316	195.380230584963	386
3	2337	196.73657213688	387
3	2337	196.73657213688	388
3	2337	196.73657213688	389
3	2355	198.122108052778	390
3	2355	198.122108052778	391
3	2355	198.122108052778	392
3	2370	200.053994165882	393
3	2370	200.053994165882	394
3	2370	200.053994165882	395
3	2387	201.792479069014	396
3	2387	201.792479069014	397
3	2387	201.792479069014	398
3	2409	203.574004470016	399
3	2409	203.574004470016	400
3	2409	203.574004470016	401
3	2427	205.56176938091	402
3	2427	205.56176938091	403
3	2427	205.56176938091	404
3	2445	206.936890439304	405
3	2445	206.936890439304	406
3	2445	206.936890439304	407
3	2459	208.24773876943	408
3	2459	208.24773876943	409
3	2459	208.24773876943	410
3	2481	209.44034425974	411
3	2481	209.44034425974	412
3	2481	209.44034425974	413
3	2495	211.074131507433	414
3	2495	211.074131507433	415
3	2495	211.074131507433	416
3	2513	212.864772552408	417
3	2513	212.864772552408	418
3	2513	212.864772552408	419
3	2531	214.320422888763	420
3	2531	214.320422888763	421
3	2531	214.320422888763	422
3	2553	216.175192065746	423
3	2553	216.175192065746	424
3	2553	216.175192065746	425
3	2567	217.601285937169	426
3	2567	217.601285937169	427
3	2567	217.601285937169	428
3	2585	219.212060486833	429
3	2585	219.212060486833	430
3	2585	219.212060486833	431
3	2603	220.275013965887	432
3	2603	220.275013965887	433
3	2603	220.275013965887	434
3	2621	221.433801782861	435
3	2621	221.433801782861	436
3	2621	221.433801782861	437
3	2643	222.696129195743	438
3	2643	222.696129195743	439
3	2643	222.696129195743	440
3	2661	224.249244748287	441
3	2661	224.249244748287	442
3	2661	224.249244748287	443
3	2679	226.054946670959	444
3	2679	226.054946670959	445
3	2679	226.054946670959	446
3	2697	227.12332484007	447
3	2697	227.12332484007	448
3	2697	227.12332484007	449
3	2715	229.054888009564	450
3	2715	229.054888009564	451
3	2715	229.054888009564	452
3	2733	230.747525054144	453
3	2733	230.747525054144	454
3	2733	230.747525054144	455
3	2748	232.432783460806	456
3	2748	232.432783460806	457
3	2748	232.432783460806	458
3	2769	234.02115504935	459
3	2769	234.02115504935	460
3	2769	234.02115504935	461
3	2783	235.416657643368	462
3	2783	235.416657643368	463
3	2783	235.416657643368	464
3	2801	237.156317878971	465
3	2801	237.156317878971	466
3	2801	237.156317878971	467
3	2823	238.391367677332	468
3	2823	238.391367677332	469
3	2823	238.391367677332	470
4	12	0.175318540583	0
4	12	0.175318540583	1
4	12	0.175318540583	2
4	25	1.210211403166	3
4	25	1.210211403166	4
4	25	1.210211403166	5
4	43	2.914053296064	6
4	43	2.914053296064	7
4	43	2.914053296064	8
4	61	4.32639336144	9
4	61	4.32639336144	10
4	61	4.32639336144	11
4	80	6.213345866795	12
4	80	6.213345866795	13
4	80	6.213345866795	14
4	98	8.009312167088	15
4	98	8.009312167088	16
4	98	8.009312167088	17
4	115	9.661697309875	18
4	115	9.661697309875	19
4	115	9.661697309875	20
4	134	11.101503900069	21
4	134	11.101503900069	22
4	134	11.101503900069	23
4	152	12.943246486908	24
4	152	12.943246486908	25
4	152	12.943246486908	26
4	169	14.43173996186	27
4	169	14.43173996186	28
4	169	14.43173996186	29
4	187	15.566192104908	30
4	187	15.566192104908	31
4	187	15.566192104908	32
4	210	17.458832967685	33
4	210	17.458832967685	34
4	210	17.458832967685	35
4	223	19.253992281424	36
4	223	19.253992281424	37
4	223	19.253992281424	38
4	245	20.563048157498	39
4	245	20.563048157498	40
4	245	20.563048157498	41
4	260	22.555571582769	42
4	260	22.555571582769	43
4	260	22.555571582769	44
4	277	23.909544033219	45
4	277	23.909544033219	46
4	277	23.909544033219	47
4	296	25.081387562287	48
4	296	25.081387562287	49
4	296	25.081387562287	50
4	313	26.384616696138	51
4	313	26.384616696138	52
4	313	26.384616696138	53
4	332	27.897607623856	54
4	332	27.897607623856	55
4	332	27.897607623856	56
4	349	29.154473759122	57
4	349	29.154473759122	58
4	349	29.154473759122	59
4	367	30.784641280171	60
4	367	30.784641280171	61
4	367	30.784641280171	62
4	385	32.205284015447	63
4	385	32.205284015447	64
4	385	32.205284015447	65
4	404	33.98648115608	66
4	404	33.98648115608	67
4	404	33.98648115608	68
4	421	35.864335128773	69
4	421	35.864335128773	70
4	421	35.864335128773	71
4	440	37.844548283624	72
4	440	37.844548283624	73
4	440	37.844548283624	74
4	457	39.084529604734	75
4	457	39.084529604734	76
4	457	39.084529604734	77
4	475	40.812703184731	78
4	475	40.812703184731	79
4	475	40.812703184731	80
4	493	42.440235329701	81
4	493	42.440235329701	82
4	493	42.440235329701	83
4	511	44.033970125235	84
4	511	44.033970125235	85
4	511	44.033970125235	86
4	529	45.885833254925	87
4	529	45.885833254925	88
4	529	45.885833254925	89
4	551	47.595077893845	90
4	551	47.595077893845	91
4	551	47.595077893845	92
4	566	49.435526646169	93
4	566	49.435526646169	94
4	566	49.435526646169	95
4	583	51.329575019489	96
4	583	51.329575019489	97
4	583	51.329575019489	98
4	601	52.380670563925	99
4	601	52.380670563925	100
4	601	52.380670563925	101
4	620	53.44032476612	102
4	620	53.44032476612	103
4	620	53.44032476612	104
4	638	54.849412725349	105
4	638	54.849412725349	106
4	638	54.849412725349	107
4	663	56.514228201964	108
4	663	56.514228201964	109
4	663	56.514228201964	110
4	677	58.158116522653	111
4	677	58.158116522653	112
4	677	58.158116522653	113
4	691	59.645154909708	114
4	691	59.645154909708	115
4	691	59.645154909708	116
4	709	61.174221450896	117
4	709	61.174221450896	118
4	709	61.174221450896	119
4	727	62.500283560981	120
4	727	62.500283560981	121
4	727	62.500283560981	122
4	746	64.395526635397	123
4	746	64.395526635397	124
4	746	64.395526635397	125
4	763	65.55776844264	126
4	763	65.55776844264	127
4	763	65.55776844264	128
4	781	67.403549576791	129
4	781	67.403549576791	130
4	781	67.403549576791	131
4	800	69.281392838661	132
4	800	69.281392838661	133
4	800	69.281392838661	134
4	825	71.090219061946	135
4	825	71.090219061946	136
4	825	71.090219061946	137
4	835	72.998339220577	138
4	835	72.998339220577	139
4	835	72.998339220577	140
4	854	74.172468144068	141
4	854	74.172468144068	142
4	854	74.172468144068	143
4	871	76.126894174674	144
4	871	76.126894174674	145
4	871	76.126894174674	146
4	889	77.421679848223	147
4	889	77.421679848223	148
4	889	77.421679848223	149
4	912	79.144893623724	150
4	912	79.144893623724	151
4	912	79.144893623724	152
4	930	80.308675879266	153
4	930	80.308675879266	154
4	930	80.308675879266	155
4	943	81.398275627693	156
4	943	81.398275627693	157
4	943	81.398275627693	158
4	961	82.454686998469	159
4	961	82.454686998469	160
4	961	82.454686998469	161
4	983	84.375895845459	162
4	983	84.375895845459	163
4	983	84.375895845459	164
4	1001	85.778873469061	165
4	1001	85.778873469061	166
4	1001	85.778873469061	167
4	1015	87.00700287257	168
4	1015	87.00700287257	169
4	1015	87.00700287257	170
4	1034	88.297178402639	171
4	1034	88.297178402639	172
4	1034	88.297178402639	173
4	1052	90.169004302432	174
4	1052	90.169004302432	175
4	1052	90.169004302432	176
4	1070	92.137040913476	177
4	1070	92.137040913476	178
4	1070	92.137040913476	179
4	1087	94.114268251343	180
4	1087	94.114268251343	181
4	1087	94.114268251343	182
4	1105	95.277266830048	183
4	1105	95.277266830048	184
4	1105	95.277266830048	185
4	1131	96.72366334607	186
4	1131	96.72366334607	187
4	1131	96.72366334607	188
4	1141	98.348625998087	189
4	1141	98.348625998087	190
4	1141	98.348625998087	191
4	1159	100.154074234786	192
4	1159	100.154074234786	193
4	1159	100.154074234786	194
4	1177	101.807715926976	195
4	1177	101.807715926976	196
4	1177	101.807715926976	197
4	1195	103.255500891299	198
4	1195	103.255500891299	199
4	1195	103.255500891299	200
4	1213	104.702739452731	201
4	1213	104.702739452731	202
4	1213	104.702739452731	203
4	1231	106.656760762136	204
4	1231	106.656760762136	205
4	1231	106.656760762136	206
4	1250	108.490696421807	207
4	1250	108.490696421807	208
4	1250	108.490696421807	209
4	1268	110.000830842297	210
4	1268	110.000830842297	211
4	1268	110.000830842297	212
4	1286	111.954914263699	213
4	1286	111.954914263699	214
4	1286	111.954914263699	215
4	1303	113.648198495013	216
4	1303	113.648198495013	217
4	1303	113.648198495013	218
4	1321	115.249421587216	219
4	1321	115.249421587216	220
4	1321	115.249421587216	221
4	1339	116.630771866858	222
4	1339	116.630771866858	223
4	1339	116.630771866858	224
4	1358	117.939974368594	225
4	1358	117.939974368594	226
4	1358	117.939974368594	227
4	1375	119.720743961913	228
4	1375	119.720743961913	229
4	1375	119.720743961913	230
4	1397	120.733649646746	231
4	1397	120.733649646746	232
4	1397	120.733649646746	233
4	1416	122.170702612243	234
4	1416	122.170702612243	235
4	1416	122.170702612243	236
4	1433	123.503600089107	237
4	1433	123.503600089107	238
4	1433	123.503600089107	239
4	1447	124.958020770846	240
4	1447	124.958020770846	241
4	1447	124.958020770846	242
4	1466	126.227514657971	243
4	1466	126.227514657971	244
4	1466	126.227514657971	245
4	1484	127.370213094867	246
4	1484	127.370213094867	247
4	1484	127.370213094867	248
4	1502	128.879106227416	249
4	1502	128.879106227416	250
4	1502	128.879106227416	251
4	1519	130.062363170973	252
4	1519	130.062363170973	253
4	1519	130.062363170973	254
4	1541	131.129430846744	255
4	1541	131.129430846744	256
4	1541	131.129430846744	257
4	1555	132.157627983701	258
4	1555	132.157627983701	259
4	1555	132.157627983701	260
4	1573	133.418209061735	261
4	1573	133.418209061735	262
4	1573	133.418209061735	263
4	1591	135.023112315787	264
4	1591	135.023112315787	265
4	1591	135.023112315787	266
4	1613	136.226191392175	267
4	1613	136.226191392175	268
4	1613	136.226191392175	269
4	1631	138.118096325645	270
4	1631	138.118096325645	271
4	1631	138.118096325645	272
4	1646	139.660818661502	273
4	1646	139.660818661502	274
4	1646	139.660818661502	275
4	1668	141.151289587645	276
4	1668	141.151289587645	277
4	1668	141.151289587645	278
4	1681	142.73078987308	279
4	1681	142.73078987308	280
4	1681	142.73078987308	281
4	1700	144.713820896832	282
4	1700	144.713820896832	283
4	1700	144.713820896832	284
4	1717	145.983524670789	285
4	1717	145.983524670789	286
4	1717	145.983524670789	287
4	1739	147.7317319508	288
4	1739	147.7317319508	289
4	1739	147.7317319508	290
4	1753	148.969970527078	291
4	1753	148.969970527078	292
4	1753	148.969970527078	293
4	1771	150.692323439019	294
4	1771	150.692323439019	295
4	1771	150.692323439019	296
4	1789	152.109517058453	297
4	1789	152.109517058453	298
4	1789	152.109517058453	299
4	1815	153.853345842697	300
4	1815	153.853345842697	301
4	1815	153.853345842697	302
4	1825	154.853591475625	303
4	1825	154.853591475625	304
4	1825	154.853591475625	305
4	1847	155.891912436997	306
4	1847	155.891912436997	307
4	1847	155.891912436997	308
4	1862	157.755590805576	309
4	1862	157.755590805576	310
4	1862	157.755590805576	311
4	1880	159.475141656696	312
4	1880	159.475141656696	313
4	1880	159.475141656696	314
4	1897	160.905987352961	315
4	1897	160.905987352961	316
4	1897	160.905987352961	317
4	1916	162.124826816228	318
4	1916	162.124826816228	319
4	1916	162.124826816228	320
4	1933	163.977831360983	321
4	1933	163.977831360983	322
4	1933	163.977831360983	323
4	1951	165.944430892198	324
4	1951	165.944430892198	325
4	1951	165.944430892198	326
4	1969	167.508914005878	327
4	1969	167.508914005878	328
4	1969	167.508914005878	329
4	1987	168.728048410177	330
4	1987	168.728048410177	331
4	1987	168.728048410177	332
4	2006	169.968257418994	333
4	2006	169.968257418994	334
4	2006	169.968257418994	335
4	2023	171.098944819583	336
4	2023	171.098944819583	337
4	2023	171.098944819583	338
4	2042	173.093677407079	339
4	2042	173.093677407079	340
4	2042	173.093677407079	341
4	2060	174.339486616355	342
4	2060	174.339486616355	343
4	2060	174.339486616355	344
4	2081	175.832165989979	345
4	2081	175.832165989979	346
4	2081	175.832165989979	347
4	2095	177.095330504944	348
4	2095	177.095330504944	349
4	2095	177.095330504944	350
4	2113	178.284599537659	351
4	2113	178.284599537659	352
4	2113	178.284599537659	353
4	2136	180.097059165939	354
4	2136	180.097059165939	355
4	2136	180.097059165939	356
4	2150	181.735908250003	357
4	2150	181.735908250003	358
4	2150	181.735908250003	359
4	2167	183.477210909362	360
4	2167	183.477210909362	361
4	2167	183.477210909362	362
4	2185	185.296602631071	363
4	2185	185.296602631071	364
4	2185	185.296602631071	365
4	2204	186.971646285643	366
4	2204	186.971646285643	367
4	2204	186.971646285643	368
4	2221	188.490629871762	369
4	2221	188.490629871762	370
4	2221	188.490629871762	371
4	2239	189.755427359786	372
4	2239	189.755427359786	373
4	2239	189.755427359786	374
4	2257	191.00534333209	375
4	2257	191.00534333209	376
4	2257	191.00534333209	377
4	2276	192.72362787201	378
4	2276	192.72362787201	379
4	2276	192.72362787201	380
4	2293	193.760428114575	381
4	2293	193.760428114575	382
4	2293	193.760428114575	383
4	2311	195.356958681765	384
4	2311	195.356958681765	385
4	2311	195.356958681765	386
4	2329	196.694713466398	387
4	2329	196.694713466398	388
4	2329	196.694713466398	389
4	2347	198.08718884534	390
4	2347	198.08718884534	391
4	2347	198.08718884534	392
4	2365	200.03388110636	393
4	2365	200.03388110636	394
4	2365	200.03388110636	395
4	2391	201.82024412854	396
4	2391	201.82024412854	397
4	2391	201.82024412854	398
4	2402	203.563828468011	399
4	2402	203.563828468011	400
4	2402	203.563828468011	401
4	2420	205.53819850609	402
4	2420	205.53819850609	403
4	2420	205.53819850609	404
4	2437	206.896270828601	405
4	2437	206.896270828601	406
4	2437	206.896270828601	407
4	2463	208.26077576063	408
4	2463	208.26077576063	409
4	2463	208.26077576063	410
4	2473	209.403083064879	411
4	2473	209.403083064879	412
4	2473	209.403083064879	413
4	2496	211.074295226742	414
4	2496	211.074295226742	415
4	2496	211.074295226742	416
4	2509	212.854005520763	417
4	2509	212.854005520763	418
4	2509	212.854005520763	419
4	2532	214.3291912388	420
4	2532	214.3291912388	421
4	2532	214.3291912388	422
4	2545	216.163835725977	423
4	2545	216.163835725977	424
4	2545	216.163835725977	425
4	2568	217.603130194257	426
4	2568	217.603130194257	427
4	2568	217.603130194257	428
4	2586	219.215058252469	429
4	2586	219.215058252469	430
4	2586	219.215058252469	431
4	2599	220.264303385759	432
4	2599	220.264303385759	433
4	2599	220.264303385759	434
4	2617	221.423182727907	435
4	2617	221.423182727907	436
4	2617	221.423182727907	437
4	2636	222.675724925667	438
4	2636	222.675724925667	439
4	2636	222.675724925667	440
4	2653	224.235746234511	441
4	2653	224.235746234511	442
4	2653	224.235746234511	443
4	2675	226.033217246087	444
4	2675	226.033217246087	445
4	2675	226.033217246087	446
4	2689	227.105632099212	447
4	2689	227.105632099212	448
4	2689	227.105632099212	449
4	2708	229.041126274371	450
4	2708	229.041126274371	451
4	2708	229.041126274371	452
4	2725	230.70205166929	453
4	2725	230.70205166929	454
4	2725	230.70205166929	455
4	2744	232.423931709619	456
4	2744	232.423931709619	457
4	2744	232.423931709619	458
4	2762	234.007054660538	459
4	2762	234.007054660538	460
4	2762	234.007054660538	461
4	2779	235.404111525245	462
4	2779	235.404111525245	463
4	2779	235.404111525245	464
4	2797	237.144878230639	465
4	2797	237.144878230639	466
4	2797	237.144878230639	467
4	2815	238.37443135193	468
4	2815	238.37443135193	469
4	2815	238.37443135193	470
5	15	0.180313894915	0
5	36	1.239148450705	1
5	54	2.94192016363	2
5	72	4.365085224167	3
5	90	6.244467487691	4
5	108	8.040801690429	5
5	126	9.686374973115	6
5	144	11.123208500678	7
5	162	12.965122966496	8
5	180	14.454803673776	9
5	198	15.596234191042	10
5	213	17.460496137156	11
5	234	19.274757028597	12
5	252	20.595079933532	13
5	270	22.577765256144	14
5	288	23.93298123183	15
5	306	25.100596966718	16
5	320	26.407368571553	17
5	342	27.94135564668	18
5	360	29.182125237777	19
5	375	30.805106928319	20
5	392	32.226053234054	21
5	414	34.000882586441	22
5	432	35.900365625966	23
5	450	37.859453654183	24
5	468	39.105970828024	25
5	486	40.841074897322	26
5	504	42.504558217734	27
5	519	44.054399925951	28
5	540	45.926350705112	29
5	558	47.615699589922	30
5	576	49.464616393713	31
5	591	51.350926773203	32
5	608	52.409273801445	33
5	630	53.461556071304	34
5	648	54.877578143767	35
5	662	56.512381630536	36
5	684	58.169669466348	37
5	702	59.694270166242	38
5	720	61.194288618157	39
5	735	62.522553917874	40
5	756	64.413684073455	41
5	771	65.58122518198	42
5	789	67.424429385996	43
5	810	69.301633387425	44
5	824	71.073107168326	45
5	846	73.019904551242	46
5	864	74.219594613758	47
5	882	76.151861787238	48
5	900	77.458055461961	49
5	915	79.152018923798	50
5	933	80.315568653255	51
5	954	81.436561352764	52
5	972	82.478570704828	53
5	990	84.386183189103	54
5	1008	85.799612038501	55
5	1026	87.02718428267	56
5	1044	88.327382635526	57
5	1062	90.197907794951	58
5	1080	92.175810443711	59
5	1098	94.140960372649	60
5	1112	95.2973400185	61
5	1130	96.719938426385	62
5	1152	98.386006077783	63
5	1170	100.174087468853	64
5	1188	101.828694346572	65
5	1206	103.278392289789	66
5	1224	104.751187335823	67
5	1242	106.689316838346	68
5	1260	108.526511624745	69
5	1278	110.022611446548	70
5	1296	111.972254219594	71
5	1314	113.675463161809	72
5	1332	115.269466873332	73
5	1350	116.655016928785	74
5	1368	117.959661925304	75
5	1383	119.744731069775	76
5	1404	120.750811619083	77
5	1419	122.174797842072	78
5	1440	123.516577444131	79
5	1458	124.990095946068	80
5	1476	126.247488287947	81
5	1494	127.38332283598	82
5	1512	128.940840610465	83
5	1530	130.090475714412	84
5	1548	131.152148980344	85
5	1566	132.18488174296	86
5	1584	133.439905745537	87
5	1602	135.056084186841	88
5	1620	136.237577347088	89
5	1638	138.138811061183	90
5	1656	139.684857760373	91
5	1671	141.158133165328	92
5	1692	142.757781170668	93
5	1710	144.736813906359	94
5	1728	146.004085791256	95
5	1746	147.748780308615	96
5	1764	148.993356791037	97
5	1782	150.733553892713	98
5	1797	152.155845215414	99
5	1814	153.833824171151	100
5	1836	154.875484379353	101
5	1854	155.904579335526	102
5	1872	157.7737198619	103
5	1890	159.488678415919	104
5	1905	160.929415806371	105
5	1926	162.147557301908	106
5	1944	164.020919187589	107
5	1959	165.967734047751	108
5	1980	167.540273500306	109
5	1998	168.75672536572	110
5	2016	169.984415983755	111
5	2034	171.123140053056	112
5	2052	173.119799253923	113
5	2070	174.373787013458	114
5	2088	175.844004086208	115
5	2106	177.148756133817	116
5	2124	178.306870201546	117
5	2139	180.105890853253	118
5	2160	181.756152400498	119
5	2178	183.519594322821	120
5	2196	185.328680892184	121
5	2214	186.998550657129	122
5	2232	188.512134766286	123
5	2247	189.782838008156	124
5	2268	191.031830379541	125
5	2286	192.758825103156	126
5	2304	193.781582339409	127
5	2322	195.390230584963	128
5	2340	196.74657213688	129
5	2358	198.132108052778	130
5	2376	200.063994165882	131
5	2390	201.802479069014	132
5	2412	203.584004470016	133
5	2430	205.57176938091	134
5	2448	206.946890439304	135
5	2462	208.25773876943	136
5	2484	209.45034425974	137
5	2499	211.084131507433	138
5	2516	212.874772552408	139
5	2535	214.330422888763	140
5	2556	216.185192065746	141
5	2571	217.611285937169	142
5	2589	219.222060486833	143
5	2606	220.285013965887	144
5	2625	221.443801782861	145
5	2646	222.706129195743	146
5	2664	224.259244748287	147
5	2682	226.064946670959	148
5	2700	227.13332484007	149
5	2718	229.064888009564	150
5	2736	230.757525054144	151
5	2754	232.442783460806	152
5	2772	234.03115504935	153
5	2786	235.426657643368	154
5	2805	237.166317878971	155
5	2826	238.401367677332	156

