version 2
run General-0-20231008-06:14:46-15473
attr configname General
attr datetime 20231008-06:14:46
attr experiment General
attr inifile omnetpp.ini
attr iterationvars ""
attr iterationvarsf ""
attr measurement ""
attr network Network1
attr processid 15473
attr repetition 0
attr replication #0
attr resultdir results
attr runnumber 0
attr seedset 0
param Network1.node[*].transmissionTime "uniform(1s, 2s)"
param Network1.node[*].delayTime "uniform(0.01s, 0.2s)"
param Network1.node[*].processingTime exponential(0.01s)
param Network1.node[*].lossProbability 0.0
param Reliability.node[*].transmissionTime "uniform(1s, 2s)"
param Reliability.node[*].delayTime "uniform(0.01s, 0.2s)"
param Reliability.node[*].processingTime exponential(0.01s)
param Reliability.node[*].lossProbability 0.0

vector 0 Network1.node[0] txVector ETV
vector 1 Network1.node[1] txVector ETV
vector 2 Network1.node[3] txVector ETV
vector 3 Network1.node[2] txVector ETV
vector 4 Network1.node[4] txVector ETV
vector 5 Network1.node[5] rxVector ETV
0	1	0.114274565438	0
0	19	1.707119181827	1
0	37	3.184784293482	2
0	55	4.325135070905	3
0	73	6.083750691339	4
0	91	7.306072076857	5
0	109	8.476981662987	6
0	127	10.112040540045	7
0	145	11.89038602177	8
0	163	12.94610071469	9
0	181	14.864336187559	10
0	199	15.873692889306	11
0	217	17.020134652573	12
0	235	18.911689083399	13
0	253	20.224907415528	14
0	271	21.695039603934	15
0	289	23.246855859021	16
0	307	24.783878376317	17
0	325	25.950725894264	18
0	343	27.001314007054	19
0	361	28.340299123508	20
0	379	29.840325417305	21
0	397	31.394567853381	22
0	415	32.450986187981	23
0	433	34.128067764297	24
0	451	36.032492741553	25
0	469	37.488622513909	26
0	487	38.642316817382	27
0	505	39.81722568961	28
0	523	41.564219927258	29
0	541	42.627258219832	30
0	559	44.414800373215	31
0	577	45.912940601662	32
0	595	46.916988707224	33
0	613	48.486199463794	34
0	631	49.811509772979	35
0	649	51.243657820702	36
0	667	52.70217237443	37
0	685	53.908766980127	38
0	703	55.833930410056	39
0	721	57.617578377791	40
0	739	58.746990715463	41
0	757	60.220211384662	42
0	775	61.723638811226	43
0	793	62.818096726977	44
0	811	64.261975406746	45
0	829	65.317941237085	46
0	847	66.898092956592	47
0	865	68.729612357526	48
0	883	70.363543310047	49
0	901	71.72670456216	50
0	919	72.847764439259	51
0	937	74.478889984621	52
0	955	75.830760548434	53
0	973	76.962612583845	54
0	991	78.922869366438	55
0	1009	80.195878269927	56
0	1027	81.52542097688	57
0	1045	83.055509908202	58
0	1063	84.690566703289	59
0	1081	86.596738544137	60
0	1099	87.823822515162	61
0	1117	88.852922523471	62
0	1135	90.740187359119	63
0	1153	92.420884595329	64
0	1171	94.000991503319	65
0	1189	95.879484133173	66
0	1207	97.200049454889	67
0	1225	99.125751603472	68
0	1243	100.71853187525	69
0	1261	102.656167097467	70
0	1279	103.677855820705	71
0	1297	105.618637479686	72
0	1315	106.6275687442	73
0	1333	108.107322617977	74
0	1351	109.231167036885	75
0	1369	110.902961338017	76
0	1387	112.433821464501	77
0	1405	114.392128822704	78
0	1423	115.929407851615	79
0	1441	117.84060501152	80
0	1459	119.228924613756	81
0	1477	120.684823051405	82
0	1495	122.080366880012	83
0	1513	123.688960183722	84
0	1531	125.11490613486	85
0	1549	127.015008261039	86
0	1567	128.736438369456	87
0	1585	130.463316334489	88
0	1603	132.398618224853	89
0	1621	134.326020777769	90
0	1639	135.994254752839	91
0	1657	137.672314165005	92
0	1675	138.829536264607	93
0	1693	140.346673541547	94
0	1711	141.921751356761	95
0	1729	143.806958632621	96
0	1747	145.283904522735	97
0	1765	147.093497902465	98
0	1783	148.469492167777	99
0	1801	149.794788973483	100
0	1819	151.492063264207	101
0	1837	152.656551674319	102
0	1855	154.230583518123	103
0	1873	156.194559238231	104
0	1891	158.126854551103	105
0	1909	159.630602365205	106
0	1927	161.071379557796	107
0	1945	162.92549444091	108
0	1963	164.369615850583	109
0	1981	165.505972852776	110
0	1999	166.538028474277	111
0	2017	168.43598441089	112
0	2035	169.56027330466	113
0	2053	171.344387653828	114
0	2071	173.220672547663	115
0	2089	174.508973101698	116
0	2107	175.775761261661	117
0	2125	177.452805794854	118
0	2143	178.979218335668	119
0	2161	180.007200328479	120
0	2179	181.419252768703	121
0	2197	182.577136640515	122
0	2215	183.694956376295	123
0	2233	185.268400315739	124
0	2251	187.246554056493	125
0	2269	188.609768028449	126
0	2287	190.184829738302	127
0	2305	191.511732464734	128
0	2323	193.15646680429	129
0	2341	194.275399074502	130
0	2359	195.768989677852	131
0	2377	197.494773388453	132
0	2395	199.213754483111	133
0	2413	200.991132348388	134
0	2431	202.675931505005	135
0	2449	203.736823731878	136
0	2467	205.722183575931	137
0	2485	207.42362433051	138
0	2503	209.033161046759	139
0	2521	210.509164203967	140
0	2539	211.703222291854	141
0	2557	213.606201145177	142
0	2575	215.158641497682	143
0	2593	216.5317473878	144
0	2611	218.48989310426	145
0	2629	219.999913306751	146
0	2647	221.220737587039	147
0	2665	223.090585658869	148
0	2683	224.172166764114	149
0	2701	225.199244991021	150
0	2719	227.001978649601	151
0	2737	228.815202191548	152
0	2755	230.596692708863	153
0	2773	232.077114134405	154
0	2791	233.618936530857	155
0	2809	235.382805255086	156
0	2827	237.307097337984	157
0	2845	239.078189238051	158
1	3	0.142870607559	0
1	3	0.142870607559	1
1	3	0.142870607559	2
1	21	1.73384129383	3
1	21	1.73384129383	4
1	21	1.73384129383	5
1	39	3.215193215641	6
1	39	3.215193215641	7
1	39	3.215193215641	8
1	57	4.336254532511	9
1	57	4.336254532511	10
1	57	4.336254532511	11
1	75	6.098636261832	12
1	75	6.098636261832	13
1	75	6.098636261832	14
1	93	7.320506117143	15
1	93	7.320506117143	16
1	93	7.320506117143	17
1	111	8.540582666489	18
1	111	8.540582666489	19
1	111	8.540582666489	20
1	129	10.151912438964	21
1	129	10.151912438964	22
1	129	10.151912438964	23
1	147	11.906385490636	24
1	147	11.906385490636	25
1	147	11.906385490636	26
1	165	12.958544669171	27
1	165	12.958544669171	28
1	165	12.958544669171	29
1	183	14.892809464069	30
1	183	14.892809464069	31
1	183	14.892809464069	32
1	201	15.892123719627	33
1	201	15.892123719627	34
1	201	15.892123719627	35
1	219	17.041530732208	36
1	219	17.041530732208	37
1	219	17.041530732208	38
1	237	18.95533278793	39
1	237	18.95533278793	40
1	237	18.95533278793	41
1	255	20.247497850701	42
1	255	20.247497850701	43
1	255	20.247497850701	44
1	273	21.705381638118	45
1	273	21.705381638118	46
1	273	21.705381638118	47
1	291	23.262796594004	48
1	291	23.262796594004	49
1	291	23.262796594004	50
1	309	24.808976610873	51
1	309	24.808976610873	52
1	309	24.808976610873	53
1	327	25.965275012712	54
1	327	25.965275012712	55
1	327	25.965275012712	56
1	345	27.013292302129	57
1	345	27.013292302129	58
1	345	27.013292302129	59
1	363	28.350815952566	60
1	363	28.350815952566	61
1	363	28.350815952566	62
1	381	29.852712946033	63
1	381	29.852712946033	64
1	381	29.852712946033	65
1	399	31.411258990618	66
1	399	31.411258990618	67
1	399	31.411258990618	68
1	417	32.470326791307	69
1	417	32.470326791307	70
1	417	32.470326791307	71
1	435	34.148446265052	72
1	435	34.148446265052	73
1	435	34.148446265052	74
1	453	36.04909777235	75
1	453	36.04909777235	76
1	453	36.04909777235	77
1	471	37.511732237591	78
1	471	37.511732237591	79
1	471	37.511732237591	80
1	489	38.664506810834	81
1	489	38.664506810834	82
1	489	38.664506810834	83
1	507	39.828197366394	84
1	507	39.828197366394	85
1	507	39.828197366394	86
1	525	41.58233133748	87
1	525	41.58233133748	88
1	525	41.58233133748	89
1	543	42.646584338385	90
1	543	42.646584338385	91
1	543	42.646584338385	92
1	561	44.443414689645	93
1	561	44.443414689645	94
1	561	44.443414689645	95
1	579	45.926080580643	96
1	579	45.926080580643	97
1	579	45.926080580643	98
1	597	46.931198640204	99
1	597	46.931198640204	100
1	597	46.931198640204	101
1	615	48.526748061584	102
1	615	48.526748061584	103
1	615	48.526748061584	104
1	633	49.835458463892	105
1	633	49.835458463892	106
1	633	49.835458463892	107
1	651	51.26109365262	108
1	651	51.26109365262	109
1	651	51.26109365262	110
1	669	52.730963558772	111
1	669	52.730963558772	112
1	669	52.730963558772	113
1	687	53.93132591497	114
1	687	53.93132591497	115
1	687	53.93132591497	116
1	705	55.852059393668	117
1	705	55.852059393668	118
1	705	55.852059393668	119
1	723	57.636227758885	120
1	723	57.636227758885	121
1	723	57.636227758885	122
1	741	58.765670415283	123
1	741	58.765670415283	124
1	741	58.765670415283	125
1	759	60.26094213689	126
1	759	60.26094213689	127
1	759	60.26094213689	128
1	777	61.743679322965	129
1	777	61.743679322965	130
1	777	61.743679322965	131
1	795	62.83306881984	132
1	795	62.83306881984	133
1	795	62.83306881984	134
1	813	64.272880481447	135
1	813	64.272880481447	136
1	813	64.272880481447	137
1	831	65.342685459333	138
1	831	65.342685459333	139
1	831	65.342685459333	140
1	849	66.924544790863	141
1	849	66.924544790863	142
1	849	66.924544790863	143
1	867	68.76576876685	144
1	867	68.76576876685	145
1	867	68.76576876685	146
1	885	70.378610542186	147
1	885	70.378610542186	148
1	885	70.378610542186	149
1	903	71.739469289325	150
1	903	71.739469289325	151
1	903	71.739469289325	152
1	921	72.859189468716	153
1	921	72.859189468716	154
1	921	72.859189468716	155
1	939	74.502299001867	156
1	939	74.502299001867	157
1	939	74.502299001867	158
1	957	75.853067736944	159
1	957	75.853067736944	160
1	957	75.853067736944	161
1	975	76.973364501937	162
1	975	76.973364501937	163
1	975	76.973364501937	164
1	993	78.967960001948	165
1	993	78.967960001948	166
1	993	78.967960001948	167
1	1011	80.240027518951	168
1	1011	80.240027518951	169
1	1011	80.240027518951	170
1	1029	81.56437215305	171
1	1029	81.56437215305	172
1	1029	81.56437215305	173
1	1047	83.069071566018	174
1	1047	83.069071566018	175
1	1047	83.069071566018	176
1	1065	84.700652183475	177
1	1065	84.700652183475	178
1	1065	84.700652183475	179
1	1083	86.612805668229	180
1	1083	86.612805668229	181
1	1083	86.612805668229	182
1	1101	87.8590214021	183
1	1101	87.8590214021	184
1	1101	87.8590214021	185
1	1119	88.884134068039	186
1	1119	88.884134068039	187
1	1119	88.884134068039	188
1	1137	90.753571770447	189
1	1137	90.753571770447	190
1	1137	90.753571770447	191
1	1155	92.43999605341	192
1	1155	92.43999605341	193
1	1155	92.43999605341	194
1	1173	94.016685864458	195
1	1173	94.016685864458	196
1	1173	94.016685864458	197
1	1191	95.889515176741	198
1	1191	95.889515176741	199
1	1191	95.889515176741	200
1	1209	97.213749246687	201
1	1209	97.213749246687	202
1	1209	97.213749246687	203
1	1227	99.140128998033	204
1	1227	99.140128998033	205
1	1227	99.140128998033	206
1	1245	100.739680543791	207
1	1245	100.739680543791	208
1	1245	100.739680543791	209
1	1263	102.667643416299	210
1	1263	102.667643416299	211
1	1263	102.667643416299	212
1	1281	103.688395190269	213
1	1281	103.688395190269	214
1	1281	103.688395190269	215
1	1299	105.629583147051	216
1	1299	105.629583147051	217
1	1299	105.629583147051	218
1	1317	106.644669447657	219
1	1317	106.644669447657	220
1	1317	106.644669447657	221
1	1335	108.13675462354	222
1	1335	108.13675462354	223
1	1335	108.13675462354	224
1	1353	109.245083882284	225
1	1353	109.245083882284	226
1	1353	109.245083882284	227
1	1371	110.913852197592	228
1	1371	110.913852197592	229
1	1371	110.913852197592	230
1	1389	112.459733487134	231
1	1389	112.459733487134	232
1	1389	112.459733487134	233
1	1407	114.405338799283	234
1	1407	114.405338799283	235
1	1407	114.405338799283	236
1	1425	115.961031901042	237
1	1425	115.961031901042	238
1	1425	115.961031901042	239
1	1443	117.85235323152	240
1	1443	117.85235323152	241
1	1443	117.85235323152	242
1	1461	119.249206666939	243
1	1461	119.249206666939	244
1	1461	119.249206666939	245
1	1479	120.697476750983	246
1	1479	120.697476750983	247
1	1479	120.697476750983	248
1	1497	122.094347490062	249
1	1497	122.094347490062	250
1	1497	122.094347490062	251
1	1515	123.699946178724	252
1	1515	123.699946178724	253
1	1515	123.699946178724	254
1	1533	125.130086425431	255
1	1533	125.130086425431	256
1	1533	125.130086425431	257
1	1551	127.03160328904	258
1	1551	127.03160328904	259
1	1551	127.03160328904	260
1	1569	128.783498275829	261
1	1569	128.783498275829	262
1	1569	128.783498275829	263
1	1587	130.488112085902	264
1	1587	130.488112085902	265
1	1587	130.488112085902	266
1	1605	132.420432278839	267
1	1605	132.420432278839	268
1	1605	132.420432278839	269
1	1623	134.342125113199	270
1	1623	134.342125113199	271
1	1623	134.342125113199	272
1	1641	136.005817679264	273
1	1641	136.005817679264	274
1	1641	136.005817679264	275
1	1659	137.686501758528	276
1	1659	137.686501758528	277
1	1659	137.686501758528	278
1	1677	138.85360557006	279
1	1677	138.85360557006	280
1	1677	138.85360557006	281
1	1695	140.362152228487	282
1	1695	140.362152228487	283
1	1695	140.362152228487	284
1	1713	141.950385216599	285
1	1713	141.950385216599	286
1	1713	141.950385216599	287
1	1731	143.825767708794	288
1	1731	143.825767708794	289
1	1731	143.825767708794	290
1	1749	145.296186988967	291
1	1749	145.296186988967	292
1	1749	145.296186988967	293
1	1767	147.10626993685	294
1	1767	147.10626993685	295
1	1767	147.10626993685	296
1	1785	148.486362124136	297
1	1785	148.486362124136	298
1	1785	148.486362124136	299
1	1803	149.811012953726	300
1	1803	149.811012953726	301
1	1803	149.811012953726	302
1	1821	151.515855417714	303
1	1821	151.515855417714	304
1	1821	151.515855417714	305
1	1839	152.695546660856	306
1	1839	152.695546660856	307
1	1839	152.695546660856	308
1	1857	154.254101986692	309
1	1857	154.254101986692	310
1	1857	154.254101986692	311
1	1875	156.25417956568	312
1	1875	156.25417956568	313
1	1875	156.25417956568	314
1	1893	158.141837439275	315
1	1893	158.141837439275	316
1	1893	158.141837439275	317
1	1911	159.642925418846	318
1	1911	159.642925418846	319
1	1911	159.642925418846	320
1	1929	161.082827719141	321
1	1929	161.082827719141	322
1	1929	161.082827719141	323
1	1947	162.940068020025	324
1	1947	162.940068020025	325
1	1947	162.940068020025	326
1	1965	164.392063471371	327
1	1965	164.392063471371	328
1	1965	164.392063471371	329
1	1983	165.516602197595	330
1	1983	165.516602197595	331
1	1983	165.516602197595	332
1	2001	166.573319788677	333
1	2001	166.573319788677	334
1	2001	166.573319788677	335
1	2019	168.448511314659	336
1	2019	168.448511314659	337
1	2019	168.448511314659	338
1	2037	169.572904913626	339
1	2037	169.572904913626	340
1	2037	169.572904913626	341
1	2055	171.357032299447	342
1	2055	171.357032299447	343
1	2055	171.357032299447	344
1	2073	173.256079982035	345
1	2073	173.256079982035	346
1	2073	173.256079982035	347
1	2091	174.521198658068	348
1	2091	174.521198658068	349
1	2091	174.521198658068	350
1	2109	175.791783344602	351
1	2109	175.791783344602	352
1	2109	175.791783344602	353
1	2127	177.470792083158	354
1	2127	177.470792083158	355
1	2127	177.470792083158	356
1	2145	178.991269505423	357
1	2145	178.991269505423	358
1	2145	178.991269505423	359
1	2163	180.024099614197	360
1	2163	180.024099614197	361
1	2163	180.024099614197	362
1	2181	181.444710830792	363
1	2181	181.444710830792	364
1	2181	181.444710830792	365
1	2199	182.591542098317	366
1	2199	182.591542098317	367
1	2199	182.591542098317	368
1	2217	183.71108888151	369
1	2217	183.71108888151	370
1	2217	183.71108888151	371
1	2235	185.282426785386	372
1	2235	185.282426785386	373
1	2235	185.282426785386	374
1	2253	187.273912754301	375
1	2253	187.273912754301	376
1	2253	187.273912754301	377
1	2271	188.622735496307	378
1	2271	188.622735496307	379
1	2271	188.622735496307	380
1	2289	190.196832267851	381
1	2289	190.196832267851	382
1	2289	190.196832267851	383
1	2307	191.525779583387	384
1	2307	191.525779583387	385
1	2307	191.525779583387	386
1	2325	193.175519907708	387
1	2325	193.175519907708	388
1	2325	193.175519907708	389
1	2343	194.287051159997	390
1	2343	194.287051159997	391
1	2343	194.287051159997	392
1	2361	195.782263221512	393
1	2361	195.782263221512	394
1	2361	195.782263221512	395
1	2379	197.508679628466	396
1	2379	197.508679628466	397
1	2379	197.508679628466	398
1	2397	199.225303826268	399
1	2397	199.225303826268	400
1	2397	199.225303826268	401
1	2415	201.015989476064	402
1	2415	201.015989476064	403
1	2415	201.015989476064	404
1	2433	202.707629224415	405
1	2433	202.707629224415	406
1	2433	202.707629224415	407
1	2451	203.749842735356	408
1	2451	203.749842735356	409
1	2451	203.749842735356	410
1	2469	205.741978476743	411
1	2469	205.741978476743	412
1	2469	205.741978476743	413
1	2487	207.435867655034	414
1	2487	207.435867655034	415
1	2487	207.435867655034	416
1	2505	209.088288899918	417
1	2505	209.088288899918	418
1	2505	209.088288899918	419
1	2523	210.568622080909	420
1	2523	210.568622080909	421
1	2523	210.568622080909	422
1	2541	211.738744800556	423
1	2541	211.738744800556	424
1	2541	211.738744800556	425
1	2559	213.618787177874	426
1	2559	213.618787177874	427
1	2559	213.618787177874	428
1	2577	215.172955282771	429
1	2577	215.172955282771	430
1	2577	215.172955282771	431
1	2595	216.559095808615	432
1	2595	216.559095808615	433
1	2595	216.559095808615	434
1	2613	218.502802955469	435
1	2613	218.502802955469	436
1	2613	218.502802955469	437
1	2631	220.011580732296	438
1	2631	220.011580732296	439
1	2631	220.011580732296	440
1	2649	221.233037998952	441
1	2649	221.233037998952	442
1	2649	221.233037998952	443
1	2667	223.107784364127	444
1	2667	223.107784364127	445
1	2667	223.107784364127	446
1	2685	224.183046097567	447
1	2685	224.183046097567	448
1	2685	224.183046097567	449
1	2703	225.218756456157	450
1	2703	225.218756456157	451
1	2703	225.218756456157	452
1	2721	227.013092128181	453
1	2721	227.013092128181	454
1	2721	227.013092128181	455
1	2739	228.833635058356	456
1	2739	228.833635058356	457
1	2739	228.833635058356	458
1	2757	230.631600181557	459
1	2757	230.631600181557	460
1	2757	230.631600181557	461
1	2775	232.094930431681	462
1	2775	232.094930431681	463
1	2775	232.094930431681	464
1	2793	233.632683625161	465
1	2793	233.632683625161	466
1	2793	233.632683625161	467
1	2811	235.399862519073	468
1	2811	235.399862519073	469
1	2811	235.399862519073	470
1	2829	237.32461188277	471
1	2829	237.32461188277	472
1	2829	237.32461188277	473
1	2847	239.088953448528	474
1	2847	239.088953448528	475
1	2847	239.088953448528	476
2	7	0.158381092426	0
2	7	0.158381092426	1
2	7	0.158381092426	2
2	30	1.769823834688	3
2	30	1.769823834688	4
2	30	1.769823834688	5
2	43	3.231382510237	6
2	43	3.231382510237	7
2	43	3.231382510237	8
2	65	4.361137080769	9
2	65	4.361137080769	10
2	65	4.361137080769	11
2	79	6.113091446783	12
2	79	6.113091446783	13
2	79	6.113091446783	14
2	98	7.335027137745	15
2	98	7.335027137745	16
2	98	7.335027137745	17
2	116	8.556862082299	18
2	116	8.556862082299	19
2	116	8.556862082299	20
2	133	10.162933887779	21
2	133	10.162933887779	22
2	133	10.162933887779	23
2	152	11.919709593046	24
2	152	11.919709593046	25
2	152	11.919709593046	26
2	169	12.971628817572	27
2	169	12.971628817572	28
2	169	12.971628817572	29
2	187	14.906226005739	30
2	187	14.906226005739	31
2	187	14.906226005739	32
2	209	15.934875151404	33
2	209	15.934875151404	34
2	209	15.934875151404	35
2	223	17.06355311788	36
2	223	17.06355311788	37
2	223	17.06355311788	38
2	241	18.972290782539	39
2	241	18.972290782539	40
2	241	18.972290782539	41
2	260	20.267121601259	42
2	260	20.267121601259	43
2	260	20.267121601259	44
2	277	21.721027743129	45
2	277	21.721027743129	46
2	277	21.721027743129	47
2	295	23.285322669253	48
2	295	23.285322669253	49
2	295	23.285322669253	50
2	313	24.82739542049	51
2	313	24.82739542049	52
2	313	24.82739542049	53
2	331	25.975392845031	54
2	331	25.975392845031	55
2	331	25.975392845031	56
2	349	27.02582735918	57
2	349	27.02582735918	58
2	349	27.02582735918	59
2	372	28.388029435125	60
2	372	28.388029435125	61
2	372	28.388029435125	62
2	393	29.891603701952	63
2	393	29.891603701952	64
2	393	29.891603701952	65
2	403	31.426003153521	66
2	403	31.426003153521	67
2	403	31.426003153521	68
2	421	32.482771701527	69
2	421	32.482771701527	70
2	421	32.482771701527	71
2	439	34.168361307981	72
2	439	34.168361307981	73
2	439	34.168361307981	74
2	457	36.07222285228	75
2	457	36.07222285228	76
2	457	36.07222285228	77
2	475	37.524984397771	78
2	475	37.524984397771	79
2	475	37.524984397771	80
2	493	38.676531398471	81
2	493	38.676531398471	82
2	493	38.676531398471	83
2	512	39.846231284021	84
2	512	39.846231284021	85
2	512	39.846231284021	86
2	530	41.607709624625	87
2	530	41.607709624625	88
2	530	41.607709624625	89
2	547	42.659220109513	90
2	547	42.659220109513	91
2	547	42.659220109513	92
2	565	44.453547942093	93
2	565	44.453547942093	94
2	565	44.453547942093	95
2	588	45.95334691444	96
2	588	45.95334691444	97
2	588	45.95334691444	98
2	601	46.956072937747	99
2	601	46.956072937747	100
2	601	46.956072937747	101
2	623	48.551470103164	102
2	623	48.551470103164	103
2	623	48.551470103164	104
2	637	49.858442920248	105
2	637	49.858442920248	106
2	637	49.858442920248	107
2	655	51.274427686004	108
2	655	51.274427686004	109
2	655	51.274427686004	110
2	674	52.745644623304	111
2	674	52.745644623304	112
2	674	52.745644623304	113
2	692	53.948641368361	114
2	692	53.948641368361	115
2	692	53.948641368361	116
2	710	55.873497347459	117
2	710	55.873497347459	118
2	710	55.873497347459	119
2	731	57.667601975789	120
2	731	57.667601975789	121
2	731	57.667601975789	122
2	745	58.785778106914	123
2	745	58.785778106914	124
2	745	58.785778106914	125
2	767	60.301281562614	126
2	767	60.301281562614	127
2	767	60.301281562614	128
2	782	61.759196359091	129
2	782	61.759196359091	130
2	782	61.759196359091	131
2	800	62.848198089758	132
2	800	62.848198089758	133
2	800	62.848198089758	134
2	817	64.283216820656	135
2	817	64.283216820656	136
2	817	64.283216820656	137
2	836	65.353912609406	138
2	836	65.353912609406	139
2	836	65.353912609406	140
2	853	66.935220132432	141
2	853	66.935220132432	142
2	853	66.935220132432	143
2	872	68.783858563801	144
2	872	68.783858563801	145
2	872	68.783858563801	146
2	890	70.392895618228	147
2	890	70.392895618228	148
2	890	70.392895618228	149
2	915	71.779618972047	150
2	915	71.779618972047	151
2	915	71.779618972047	152
2	926	72.883004059514	153
2	926	72.883004059514	154
2	926	72.883004059514	155
2	943	74.522350158353	156
2	943	74.522350158353	157
2	943	74.522350158353	158
2	962	75.866532070219	159
2	962	75.866532070219	160
2	962	75.866532070219	161
2	979	76.986577904966	162
2	979	76.986577904966	163
2	979	76.986577904966	164
2	998	78.985009495162	165
2	998	78.985009495162	166
2	998	78.985009495162	167
2	1016	80.252953024963	168
2	1016	80.252953024963	169
2	1016	80.252953024963	170
2	1034	81.578553069639	171
2	1034	81.578553069639	172
2	1034	81.578553069639	173
2	1052	83.086633228496	174
2	1052	83.086633228496	175
2	1052	83.086633228496	176
2	1069	84.711881809144	177
2	1069	84.711881809144	178
2	1069	84.711881809144	179
2	1092	86.655712156532	180
2	1092	86.655712156532	181
2	1092	86.655712156532	182
2	1106	87.87636010177	183
2	1106	87.87636010177	184
2	1106	87.87636010177	185
2	1131	88.933548654885	186
2	1131	88.933548654885	187
2	1131	88.933548654885	188
2	1141	90.76393876115	189
2	1141	90.76393876115	190
2	1141	90.76393876115	191
2	1159	92.451742331375	192
2	1159	92.451742331375	193
2	1159	92.451742331375	194
2	1182	94.05051654719	195
2	1182	94.05051654719	196
2	1182	94.05051654719	197
2	1195	95.904267271129	198
2	1195	95.904267271129	199
2	1195	95.904267271129	200
2	1213	97.226472758951	201
2	1213	97.226472758951	202
2	1213	97.226472758951	203
2	1232	99.159070056914	204
2	1232	99.159070056914	205
2	1232	99.159070056914	206
2	1249	100.771734551829	207
2	1249	100.771734551829	208
2	1249	100.771734551829	209
2	1268	102.692475150379	210
2	1268	102.692475150379	211
2	1268	102.692475150379	212
2	1285	103.703500141896	213
2	1285	103.703500141896	214
2	1285	103.703500141896	215
2	1303	105.642348023892	216
2	1303	105.642348023892	217
2	1303	105.642348023892	218
2	1325	106.674127293496	219
2	1325	106.674127293496	220
2	1325	106.674127293496	221
2	1339	108.151848908642	222
2	1339	108.151848908642	223
2	1339	108.151848908642	224
2	1358	109.260276419533	225
2	1358	109.260276419533	226
2	1358	109.260276419533	227
2	1380	110.955828785166	228
2	1380	110.955828785166	229
2	1380	110.955828785166	230
2	1393	112.469926568186	231
2	1393	112.469926568186	232
2	1393	112.469926568186	233
2	1412	114.418418187239	234
2	1412	114.418418187239	235
2	1412	114.418418187239	236
2	1430	115.973258289562	237
2	1430	115.973258289562	238
2	1430	115.973258289562	239
2	1447	117.867338394839	240
2	1447	117.867338394839	241
2	1447	117.867338394839	242
2	1465	119.262229948319	243
2	1465	119.262229948319	244
2	1465	119.262229948319	245
2	1483	120.707515429215	246
2	1483	120.707515429215	247
2	1483	120.707515429215	248
2	1502	122.11232147482	249
2	1502	122.11232147482	250
2	1502	122.11232147482	251
2	1524	123.729520362646	252
2	1524	123.729520362646	253
2	1524	123.729520362646	254
2	1537	125.155782808977	255
2	1537	125.155782808977	256
2	1537	125.155782808977	257
2	1556	127.056661800471	258
2	1556	127.056661800471	259
2	1556	127.056661800471	260
2	1573	128.79428177384	261
2	1573	128.79428177384	262
2	1573	128.79428177384	263
2	1591	130.5030845506	264
2	1591	130.5030845506	265
2	1591	130.5030845506	266
2	1609	132.442777817537	267
2	1609	132.442777817537	268
2	1609	132.442777817537	269
2	1627	134.353317761899	270
2	1627	134.353317761899	271
2	1627	134.353317761899	272
2	1645	136.016474311116	273
2	1645	136.016474311116	274
2	1645	136.016474311116	275
2	1667	137.709517179613	276
2	1667	137.709517179613	277
2	1667	137.709517179613	278
2	1681	138.865504487635	279
2	1681	138.865504487635	280
2	1681	138.865504487635	281
2	1703	140.394139881384	282
2	1703	140.394139881384	283
2	1703	140.394139881384	284
2	1718	141.964832401149	285
2	1718	141.964832401149	286
2	1718	141.964832401149	287
2	1739	143.856447331946	288
2	1739	143.856447331946	289
2	1739	143.856447331946	290
2	1753	145.310608490686	291
2	1753	145.310608490686	292
2	1753	145.310608490686	293
2	1775	147.131004714617	294
2	1775	147.131004714617	295
2	1775	147.131004714617	296
2	1789	148.503257253355	297
2	1789	148.503257253355	298
2	1789	148.503257253355	299
2	1811	149.841889856357	300
2	1811	149.841889856357	301
2	1811	149.841889856357	302
2	1825	151.526869665548	303
2	1825	151.526869665548	304
2	1825	151.526869665548	305
2	1843	152.712181877705	306
2	1843	152.712181877705	307
2	1843	152.712181877705	308
2	1861	154.264540713472	309
2	1861	154.264540713472	310
2	1861	154.264540713472	311
2	1879	156.26569226013	312
2	1879	156.26569226013	313
2	1879	156.26569226013	314
2	1898	158.168722217555	315
2	1898	158.168722217555	316
2	1898	158.168722217555	317
2	1919	159.672139958206	318
2	1919	159.672139958206	319
2	1919	159.672139958206	320
2	1934	161.105914670738	321
2	1934	161.105914670738	322
2	1934	161.105914670738	323
2	1952	162.957723224763	324
2	1952	162.957723224763	325
2	1952	162.957723224763	326
2	1969	164.408843326588	327
2	1969	164.408843326588	328
2	1969	164.408843326588	329
2	1988	165.539952628438	330
2	1988	165.539952628438	331
2	1988	165.539952628438	332
2	2006	166.595656221453	333
2	2006	166.595656221453	334
2	2006	166.595656221453	335
2	2024	168.461901692936	336
2	2024	168.461901692936	337
2	2024	168.461901692936	338
2	2042	169.592593917655	339
2	2042	169.592593917655	340
2	2042	169.592593917655	341
2	2060	171.37340861664	342
2	2060	171.37340861664	343
2	2060	171.37340861664	344
2	2078	173.273541432005	345
2	2078	173.273541432005	346
2	2078	173.273541432005	347
2	2095	174.537648416445	348
2	2095	174.537648416445	349
2	2095	174.537648416445	350
2	2117	175.817448442654	351
2	2117	175.817448442654	352
2	2117	175.817448442654	353
2	2131	177.481316343347	354
2	2131	177.481316343347	355
2	2131	177.481316343347	356
2	2149	179.002422533662	357
2	2149	179.002422533662	358
2	2149	179.002422533662	359
2	2167	180.0538412811	360
2	2167	180.0538412811	361
2	2167	180.0538412811	362
2	2186	181.476340962783	363
2	2186	181.476340962783	364
2	2186	181.476340962783	365
2	2203	182.604633275219	366
2	2203	182.604633275219	367
2	2203	182.604633275219	368
2	2222	183.726598201256	369
2	2222	183.726598201256	370
2	2222	183.726598201256	371
2	2239	185.300469390364	372
2	2239	185.300469390364	373
2	2239	185.300469390364	374
2	2258	187.292664070157	375
2	2258	187.292664070157	376
2	2258	187.292664070157	377
2	2275	188.636735066711	378
2	2275	188.636735066711	379
2	2275	188.636735066711	380
2	2294	190.213891409589	381
2	2294	190.213891409589	382
2	2294	190.213891409589	383
2	2311	191.539585604167	384
2	2311	191.539585604167	385
2	2311	191.539585604167	386
2	2329	193.185702528703	387
2	2329	193.185702528703	388
2	2329	193.185702528703	389
2	2351	194.338311882085	390
2	2351	194.338311882085	391
2	2351	194.338311882085	392
2	2365	195.797763295153	393
2	2365	195.797763295153	394
2	2365	195.797763295153	395
2	2383	197.52191392522	396
2	2383	197.52191392522	397
2	2383	197.52191392522	398
2	2406	199.263808848366	399
2	2406	199.263808848366	400
2	2406	199.263808848366	401
2	2419	201.026409993101	402
2	2419	201.026409993101	403
2	2419	201.026409993101	404
2	2437	202.726015411456	405
2	2437	202.726015411456	406
2	2437	202.726015411456	407
2	2455	203.762119535211	408
2	2455	203.762119535211	409
2	2455	203.762119535211	410
2	2473	205.757114909102	411
2	2473	205.757114909102	412
2	2473	205.757114909102	413
2	2491	207.454290786214	414
2	2491	207.454290786214	415
2	2491	207.454290786214	416
2	2509	209.099554933724	417
2	2509	209.099554933724	418
2	2509	209.099554933724	419
2	2531	210.609643386651	420
2	2531	210.609643386651	421
2	2531	210.609643386651	422
2	2545	211.755718472959	423
2	2545	211.755718472959	424
2	2545	211.755718472959	425
2	2563	213.629003078681	426
2	2563	213.629003078681	427
2	2563	213.629003078681	428
2	2589	215.212293599749	429
2	2589	215.212293599749	430
2	2589	215.212293599749	431
2	2603	216.589278485632	432
2	2603	216.589278485632	433
2	2603	216.589278485632	434
2	2617	218.527463066403	435
2	2617	218.527463066403	436
2	2617	218.527463066403	437
2	2635	220.036486070238	438
2	2635	220.036486070238	439
2	2635	220.036486070238	440
2	2653	221.243711385651	441
2	2653	221.243711385651	442
2	2653	221.243711385651	443
2	2672	223.132402937293	444
2	2672	223.132402937293	445
2	2672	223.132402937293	446
2	2690	224.208241742527	447
2	2690	224.208241742527	448
2	2690	224.208241742527	449
2	2707	225.237374247047	450
2	2707	225.237374247047	451
2	2707	225.237374247047	452
2	2726	227.031038530798	453
2	2726	227.031038530798	454
2	2726	227.031038530798	455
2	2747	228.872464892553	456
2	2747	228.872464892553	457
2	2747	228.872464892553	458
2	2761	230.641906761181	459
2	2761	230.641906761181	460
2	2761	230.641906761181	461
2	2779	232.106771368428	462
2	2779	232.106771368428	463
2	2779	232.106771368428	464
2	2797	233.657168299953	465
2	2797	233.657168299953	466
2	2797	233.657168299953	467
2	2823	235.432753056687	468
2	2823	235.432753056687	469
2	2823	235.432753056687	470
2	2833	237.336031040707	471
2	2833	237.336031040707	472
2	2833	237.336031040707	473
2	2856	239.112837881238	474
2	2856	239.112837881238	475
2	2856	239.112837881238	476
3	8	0.160742618959	0
3	8	0.160742618959	1
3	8	0.160742618959	2
3	25	1.752235622359	3
3	25	1.752235622359	4
3	25	1.752235622359	5
3	44	3.241245611212	6
3	44	3.241245611212	7
3	44	3.241245611212	8
3	61	4.349327336033	9
3	61	4.349327336033	10
3	61	4.349327336033	11
3	80	6.120087651379	12
3	80	6.120087651379	13
3	80	6.120087651379	14
3	97	7.334295736786	15
3	97	7.334295736786	16
3	97	7.334295736786	17
3	115	8.553503471822	18
3	115	8.553503471822	19
3	115	8.553503471822	20
3	138	10.179115755541	21
3	138	10.179115755541	22
3	138	10.179115755541	23
3	151	11.916785253627	24
3	151	11.916785253627	25
3	151	11.916785253627	26
3	170	12.976905644491	27
3	170	12.976905644491	28
3	170	12.976905644491	29
3	188	14.91540880217	30
3	188	14.91540880217	31
3	188	14.91540880217	32
3	205	15.915411298365	33
3	205	15.915411298365	34
3	205	15.915411298365	35
3	224	17.070265331007	36
3	224	17.070265331007	37
3	224	17.070265331007	38
3	242	18.978251880618	39
3	242	18.978251880618	40
3	242	18.978251880618	41
3	259	20.260923846948	42
3	259	20.260923846948	43
3	259	20.260923846948	44
3	278	21.725940134205	45
3	278	21.725940134205	46
3	278	21.725940134205	47
3	300	23.297989415305	48
3	300	23.297989415305	49
3	300	23.297989415305	50
3	314	24.835443801886	51
3	314	24.835443801886	52
3	314	24.835443801886	53
3	335	25.994640785087	54
3	335	25.994640785087	55
3	335	25.994640785087	56
3	353	27.03907642935	57
3	353	27.03907642935	58
3	353	27.03907642935	59
3	367	28.363532633269	60
3	367	28.363532633269	61
3	367	28.363532633269	62
3	385	29.864773266518	63
3	385	29.864773266518	64
3	385	29.864773266518	65
3	404	31.433177571655	66
3	404	31.433177571655	67
3	404	31.433177571655	68
3	429	32.526723316571	69
3	429	32.526723316571	70
3	429	32.526723316571	71
3	440	34.17622769842	72
3	440	34.17622769842	73
3	440	34.17622769842	74
3	462	36.088542575124	75
3	462	36.088542575124	76
3	462	36.088542575124	77
3	476	37.527960530689	78
3	476	37.527960530689	79
3	476	37.527960530689	80
3	494	38.68284059324	81
3	494	38.68284059324	82
3	494	38.68284059324	83
3	511	39.839068452227	84
3	511	39.839068452227	85
3	511	39.839068452227	86
3	529	41.603415435022	87
3	529	41.603415435022	88
3	529	41.603415435022	89
3	551	42.689173548157	90
3	551	42.689173548157	91
3	551	42.689173548157	92
3	566	44.463034808911	93
3	566	44.463034808911	94
3	566	44.463034808911	95
3	583	45.937552831016	96
3	583	45.937552831016	97
3	583	45.937552831016	98
3	602	46.96490251601	99
3	602	46.96490251601	100
3	602	46.96490251601	101
3	619	48.536862994086	102
3	619	48.536862994086	103
3	619	48.536862994086	104
3	638	49.865159039548	105
3	638	49.865159039548	106
3	638	49.865159039548	107
3	656	51.282988615133	108
3	656	51.282988615133	109
3	656	51.282988615133	110
3	673	52.743966809575	111
3	673	52.743966809575	112
3	673	52.743966809575	113
3	691	53.942126703529	114
3	691	53.942126703529	115
3	691	53.942126703529	116
3	709	55.869741927087	117
3	709	55.869741927087	118
3	709	55.869741927087	119
3	727	57.652332587335	120
3	727	57.652332587335	121
3	727	57.652332587335	122
3	746	58.789808248578	123
3	746	58.789808248578	124
3	746	58.789808248578	125
3	763	60.277052712503	126
3	763	60.277052712503	127
3	763	60.277052712503	128
3	781	61.754326979893	129
3	781	61.754326979893	130
3	781	61.754326979893	131
3	799	62.845117342511	132
3	799	62.845117342511	133
3	799	62.845117342511	134
3	818	64.29241170683	135
3	818	64.29241170683	136
3	818	64.29241170683	137
3	835	65.352806551784	138
3	835	65.352806551784	139
3	835	65.352806551784	140
3	861	66.980023029382	141
3	861	66.980023029382	142
3	861	66.980023029382	143
3	871	68.781286788066	144
3	871	68.781286788066	145
3	871	68.781286788066	146
3	889	70.391258364919	147
3	889	70.391258364919	148
3	889	70.391258364919	149
3	907	71.750588734736	150
3	907	71.750588734736	151
3	907	71.750588734736	152
3	925	72.873878250272	153
3	925	72.873878250272	154
3	925	72.873878250272	155
3	947	74.540873255345	156
3	947	74.540873255345	157
3	947	74.540873255345	158
3	961	75.863802800718	159
3	961	75.863802800718	160
3	961	75.863802800718	161
3	980	76.991280592883	162
3	980	76.991280592883	163
3	980	76.991280592883	164
3	997	78.980815691153	165
3	997	78.980815691153	166
3	997	78.980815691153	167
3	1015	80.250526674975	168
3	1015	80.250526674975	169
3	1015	80.250526674975	170
3	1033	81.576665324766	171
3	1033	81.576665324766	172
3	1033	81.576665324766	173
3	1051	83.083734536282	174
3	1051	83.083734536282	175
3	1051	83.083734536282	176
3	1070	84.71300624214	177
3	1070	84.71300624214	178
3	1070	84.71300624214	179
3	1087	86.631690955352	180
3	1087	86.631690955352	181
3	1087	86.631690955352	182
3	1105	87.874856003823	183
3	1105	87.874856003823	184
3	1105	87.874856003823	185
3	1123	88.895566555077	186
3	1123	88.895566555077	187
3	1123	88.895566555077	188
3	1146	90.788801945061	189
3	1146	90.788801945061	190
3	1146	90.788801945061	191
3	1164	92.473842206842	192
3	1164	92.473842206842	193
3	1164	92.473842206842	194
3	1177	94.027316098901	195
3	1177	94.027316098901	196
3	1177	94.027316098901	197
3	1196	95.905876211285	198
3	1196	95.905876211285	199
3	1196	95.905876211285	200
3	1214	97.227089997518	201
3	1214	97.227089997518	202
3	1214	97.227089997518	203
3	1231	99.154335674757	204
3	1231	99.154335674757	205
3	1231	99.154335674757	206
3	1253	100.787072028571	207
3	1253	100.787072028571	208
3	1253	100.787072028571	209
3	1267	102.685024783724	210
3	1267	102.685024783724	211
3	1267	102.685024783724	212
3	1293	103.739394533196	213
3	1293	103.739394533196	214
3	1293	103.739394533196	215
3	1304	105.648283946155	216
3	1304	105.648283946155	217
3	1304	105.648283946155	218
3	1321	106.66018082714	219
3	1321	106.66018082714	220
3	1321	106.66018082714	221
3	1340	108.156948575421	222
3	1340	108.156948575421	223
3	1340	108.156948575421	224
3	1357	109.256254582677	225
3	1357	109.256254582677	226
3	1357	109.256254582677	227
3	1375	110.933924924476	228
3	1375	110.933924924476	229
3	1375	110.933924924476	230
3	1394	112.471847698884	231
3	1394	112.471847698884	232
3	1394	112.471847698884	233
3	1411	114.416392560689	234
3	1411	114.416392560689	235
3	1411	114.416392560689	236
3	1429	115.972696802981	237
3	1429	115.972696802981	238
3	1429	115.972696802981	239
3	1451	117.884957235994	240
3	1451	117.884957235994	241
3	1451	117.884957235994	242
3	1466	119.263746581406	243
3	1466	119.263746581406	244
3	1466	119.263746581406	245
3	1491	120.742789164988	246
3	1491	120.742789164988	247
3	1491	120.742789164988	248
3	1501	122.107920008015	249
3	1501	122.107920008015	250
3	1501	122.107920008015	251
3	1519	123.713776859395	252
3	1519	123.713776859395	253
3	1519	123.713776859395	254
3	1542	125.17394383446	255
3	1542	125.17394383446	256
3	1542	125.17394383446	257
3	1555	127.048414641821	258
3	1555	127.048414641821	259
3	1555	127.048414641821	260
3	1574	128.797125187191	261
3	1574	128.797125187191	262
3	1574	128.797125187191	263
3	1596	130.525077434441	264
3	1596	130.525077434441	265
3	1596	130.525077434441	266
3	1610	132.447006224046	267
3	1610	132.447006224046	268
3	1610	132.447006224046	269
3	1632	134.372871637023	270
3	1632	134.372871637023	271
3	1632	134.372871637023	272
3	1646	136.021358520712	273
3	1646	136.021358520712	274
3	1646	136.021358520712	275
3	1663	137.69773091641	276
3	1663	137.69773091641	277
3	1663	137.69773091641	278
3	1682	138.869020294997	279
3	1682	138.869020294997	280
3	1682	138.869020294997	281
3	1699	140.37940146285	282
3	1699	140.37940146285	283
3	1699	140.37940146285	284
3	1717	141.961897120863	285
3	1717	141.961897120863	286
3	1717	141.961897120863	287
3	1735	143.838737179382	288
3	1735	143.838737179382	289
3	1735	143.838737179382	290
3	1754	145.311862314805	291
3	1754	145.311862314805	292
3	1754	145.311862314805	293
3	1771	147.120493971344	294
3	1771	147.120493971344	295
3	1771	147.120493971344	296
3	1790	148.506068781614	297
3	1790	148.506068781614	298
3	1790	148.506068781614	299
3	1807	149.821625148047	300
3	1807	149.821625148047	301
3	1807	149.821625148047	302
3	1833	151.565221479012	303
3	1833	151.565221479012	304
3	1833	151.565221479012	305
3	1844	152.71283080061	306
3	1844	152.71283080061	307
3	1844	152.71283080061	308
3	1869	154.287447868913	309
3	1869	154.287447868913	310
3	1869	154.287447868913	311
3	1884	156.280993209632	312
3	1884	156.280993209632	313
3	1884	156.280993209632	314
3	1897	158.164848565654	315
3	1897	158.164848565654	316
3	1897	158.164848565654	317
3	1915	159.660310544216	318
3	1915	159.660310544216	319
3	1915	159.660310544216	320
3	1933	161.099416804609	321
3	1933	161.099416804609	322
3	1933	161.099416804609	323
3	1951	162.95226525748	324
3	1951	162.95226525748	325
3	1951	162.95226525748	326
3	1973	164.427612279268	327
3	1973	164.427612279268	328
3	1973	164.427612279268	329
3	1987	165.533671879236	330
3	1987	165.533671879236	331
3	1987	165.533671879236	332
3	2005	166.589779108213	333
3	2005	166.589779108213	334
3	2005	166.589779108213	335
3	2023	168.459648294943	336
3	2023	168.459648294943	337
3	2023	168.459648294943	338
3	2041	169.585594618909	339
3	2041	169.585594618909	340
3	2041	169.585594618909	341
3	2059	171.368417517868	342
3	2059	171.368417517868	343
3	2059	171.368417517868	344
3	2077	173.267441547769	345
3	2077	173.267441547769	346
3	2077	173.267441547769	347
3	2099	174.550388632315	348
3	2099	174.550388632315	349
3	2099	174.550388632315	350
3	2113	175.805503104686	351
3	2113	175.805503104686	352
3	2113	175.805503104686	353
3	2132	177.481661734935	354
3	2132	177.481661734935	355
3	2132	177.481661734935	356
3	2153	179.013030102695	357
3	2153	179.013030102695	358
3	2153	179.013030102695	359
3	2172	180.068314981659	360
3	2172	180.068314981659	361
3	2172	180.068314981659	362
3	2185	181.468771765963	363
3	2185	181.468771765963	364
3	2185	181.468771765963	365
3	2207	182.628034017556	366
3	2207	182.628034017556	367
3	2207	182.628034017556	368
3	2221	183.723355328694	369
3	2221	183.723355328694	370
3	2221	183.723355328694	371
3	2240	185.309374799631	372
3	2240	185.309374799631	373
3	2240	185.309374799631	374
3	2257	187.285282652217	375
3	2257	187.285282652217	376
3	2257	187.285282652217	377
3	2276	188.645775591237	378
3	2276	188.645775591237	379
3	2276	188.645775591237	380
3	2293	190.210070884925	381
3	2293	190.210070884925	382
3	2293	190.210070884925	383
3	2319	191.566917625006	384
3	2319	191.566917625006	385
3	2319	191.566917625006	386
3	2330	193.186613352843	387
3	2330	193.186613352843	388
3	2330	193.186613352843	389
3	2347	194.305922156088	390
3	2347	194.305922156088	391
3	2347	194.305922156088	392
3	2366	195.803189491472	393
3	2366	195.803189491472	394
3	2366	195.803189491472	395
3	2388	197.542921606007	396
3	2388	197.542921606007	397
3	2388	197.542921606007	398
3	2401	199.238993151816	399
3	2401	199.238993151816	400
3	2401	199.238993151816	401
3	2423	201.042137744009	402
3	2423	201.042137744009	403
3	2423	201.042137744009	404
3	2438	202.732468699085	405
3	2438	202.732468699085	406
3	2438	202.732468699085	407
3	2459	203.774006418627	408
3	2459	203.774006418627	409
3	2459	203.774006418627	410
3	2474	205.762890785909	411
3	2474	205.762890785909	412
3	2474	205.762890785909	413
3	2492	207.454689155778	414
3	2492	207.454689155778	415
3	2492	207.454689155778	416
3	2510	209.10740979495	417
3	2510	209.10740979495	418
3	2510	209.10740979495	419
3	2527	210.587146083463	420
3	2527	210.587146083463	421
3	2527	210.587146083463	422
3	2546	211.763447132505	423
3	2546	211.763447132505	424
3	2546	211.763447132505	425
3	2567	213.64003035383	426
3	2567	213.64003035383	427
3	2567	213.64003035383	428
3	2581	215.186816707025	429
3	2581	215.186816707025	430
3	2581	215.186816707025	431
3	2599	216.570152007845	432
3	2599	216.570152007845	433
3	2599	216.570152007845	434
3	2618	218.534375720156	435
3	2618	218.534375720156	436
3	2618	218.534375720156	437
3	2639	220.055565275959	438
3	2639	220.055565275959	439
3	2639	220.055565275959	440
3	2657	221.275431980148	441
3	2657	221.275431980148	442
3	2657	221.275431980148	443
3	2671	223.122907290598	444
3	2671	223.122907290598	445
3	2671	223.122907290598	446
3	2689	224.204890655227	447
3	2689	224.204890655227	448
3	2689	224.204890655227	449
3	2708	225.245379680028	450
3	2708	225.245379680028	451
3	2708	225.245379680028	452
3	2725	227.02647700879	453
3	2725	227.02647700879	454
3	2725	227.02647700879	455
3	2743	228.858546265518	456
3	2743	228.858546265518	457
3	2743	228.858546265518	458
3	2765	230.653701447998	459
3	2765	230.653701447998	460
3	2765	230.653701447998	461
3	2780	232.108763245735	462
3	2780	232.108763245735	463
3	2780	232.108763245735	464
3	2798	233.664512388969	465
3	2798	233.664512388969	466
3	2798	233.664512388969	467
3	2815	235.41011764906	468
3	2815	235.41011764906	469
3	2815	235.41011764906	470
3	2834	237.336967340069	471
3	2834	237.336967340069	472
3	2834	237.336967340069	473
3	2851	239.101898015292	474
3	2851	239.101898015292	475
3	2851	239.101898015292	476
4	15	0.174136284395	0
4	15	0.174136284395	1
4	15	0.174136284395	2
4	29	1.766351402321	3
4	29	1.766351402321	4
4	29	1.766351402321	5
4	48	3.242641254331	6
4	48	3.242641254331	7
4	48	3.242641254331	8
4	66	4.36176782094	9
4	66	4.36176782094	10
4	66	4.36176782094	11
4	87	6.135052524778	12
4	87	6.135052524778	13
4	87	6.135052524778	14
4	102	7.34468756835	15
4	102	7.34468756835	16
4	102	7.34468756835	17
4	123	8.573272112563	18
4	123	8.573272112563	19
4	123	8.573272112563	20
4	137	10.173944235532	21
4	137	10.173944235532	22
4	137	10.173944235532	23
4	159	11.931239448246	24
4	159	11.931239448246	25
4	159	11.931239448246	26
4	174	12.982615320656	27
4	174	12.982615320656	28
4	174	12.982615320656	29
4	192	14.925057296159	30
4	192	14.925057296159	31
4	192	14.925057296159	32
4	210	15.939521542458	33
4	210	15.939521542458	34
4	210	15.939521542458	35
4	231	17.090362339925	36
4	231	17.090362339925	37
4	231	17.090362339925	38
4	249	18.992618752645	39
4	249	18.992618752645	40
4	249	18.992618752645	41
4	267	20.291998322998	42
4	267	20.291998322998	43
4	267	20.291998322998	44
4	282	21.735609471969	45
4	282	21.735609471969	46
4	282	21.735609471969	47
4	299	23.29694137012	48
4	299	23.29694137012	49
4	299	23.29694137012	50
4	318	24.838112174333	51
4	318	24.838112174333	52
4	318	24.838112174333	53
4	336	25.998485828671	54
4	336	25.998485828671	55
4	336	25.998485828671	56
4	357	27.062149547805	57
4	357	27.062149547805	58
4	357	27.062149547805	59
4	371	28.384898598222	60
4	371	28.384898598222	61
4	371	28.384898598222	62
4	389	29.880790056383	63
4	389	29.880790056383	64
4	389	29.880790056383	65
4	408	31.436253037054	66
4	408	31.436253037054	67
4	408	31.436253037054	68
4	425	32.495827750545	69
4	425	32.495827750545	70
4	425	32.495827750545	71
4	444	34.18155705453	72
4	444	34.18155705453	73
4	444	34.18155705453	74
4	461	36.084622087474	75
4	461	36.084622087474	76
4	461	36.084622087474	77
4	483	37.554924789784	78
4	483	37.554924789784	79
4	483	37.554924789784	80
4	501	38.69322680438	81
4	501	38.69322680438	82
4	501	38.69322680438	83
4	516	39.849535329663	84
4	516	39.849535329663	85
4	516	39.849535329663	86
4	537	41.625572339756	87
4	537	41.625572339756	88
4	537	41.625572339756	89
4	552	42.697586511447	90
4	552	42.697586511447	91
4	552	42.697586511447	92
4	570	44.465151283038	93
4	570	44.465151283038	94
4	570	44.465151283038	95
4	587	45.952679977442	96
4	587	45.952679977442	97
4	587	45.952679977442	98
4	606	46.966918732665	99
4	606	46.966918732665	100
4	606	46.966918732665	101
4	627	48.568306848731	102
4	627	48.568306848731	103
4	627	48.568306848731	104
4	642	49.869852599092	105
4	642	49.869852599092	106
4	642	49.869852599092	107
4	660	51.286426241383	108
4	660	51.286426241383	109
4	660	51.286426241383	110
4	678	52.754064163668	111
4	678	52.754064163668	112
4	678	52.754064163668	113
4	699	53.958829022295	114
4	699	53.958829022295	115
4	699	53.958829022295	116
4	717	55.887490350882	117
4	717	55.887490350882	118
4	717	55.887490350882	119
4	735	57.678445907326	120
4	735	57.678445907326	121
4	735	57.678445907326	122
4	750	58.797528057396	123
4	750	58.797528057396	124
4	750	58.797528057396	125
4	768	60.306932107051	126
4	768	60.306932107051	127
4	768	60.306932107051	128
4	789	61.777335354168	129
4	789	61.777335354168	130
4	789	61.777335354168	131
4	807	62.86652013128	132
4	807	62.86652013128	133
4	807	62.86652013128	134
4	822	64.298816904389	135
4	822	64.298816904389	136
4	822	64.298816904389	137
4	843	65.365612311046	138
4	843	65.365612311046	139
4	843	65.365612311046	140
4	857	66.948622504628	141
4	857	66.948622504628	142
4	857	66.948622504628	143
4	879	68.808577984443	144
4	879	68.808577984443	145
4	879	68.808577984443	146
4	897	70.404232100198	147
4	897	70.404232100198	148
4	897	70.404232100198	149
4	911	71.765022078696	150
4	911	71.765022078696	151
4	911	71.765022078696	152
4	933	72.899751822569	153
4	933	72.899751822569	154
4	933	72.899751822569	155
4	951	74.560519275653	156
4	951	74.560519275653	157
4	951	74.560519275653	158
4	969	75.879736106401	159
4	969	75.879736106401	160
4	969	75.879736106401	161
4	987	77.01928500604	162
4	987	77.01928500604	163
4	987	77.01928500604	164
4	1002	78.994069858325	165
4	1002	78.994069858325	166
4	1002	78.994069858325	167
4	1023	80.282529968179	168
4	1023	80.282529968179	169
4	1023	80.282529968179	170
4	1041	81.594614053127	171
4	1041	81.594614053127	172
4	1041	81.594614053127	173
4	1059	83.098215415966	174
4	1059	83.098215415966	175
4	1059	83.098215415966	176
4	1077	84.733765100747	177
4	1077	84.733765100747	178
4	1077	84.733765100747	179
4	1091	86.652695640657	180
4	1091	86.652695640657	181
4	1091	86.652695640657	182
4	1113	87.901289536175	183
4	1113	87.901289536175	184
4	1113	87.901289536175	185
4	1127	88.915287044762	186
4	1127	88.915287044762	187
4	1127	88.915287044762	188
4	1145	90.778867548834	189
4	1145	90.778867548834	190
4	1145	90.778867548834	191
4	1163	92.467545227255	192
4	1163	92.467545227255	193
4	1163	92.467545227255	194
4	1181	94.043021158782	195
4	1181	94.043021158782	196
4	1181	94.043021158782	197
4	1203	95.916186850149	198
4	1203	95.916186850149	199
4	1203	95.916186850149	200
4	1221	97.241060271977	201
4	1221	97.241060271977	202
4	1221	97.241060271977	203
4	1239	99.169490150257	204
4	1239	99.169490150257	205
4	1239	99.169490150257	206
4	1254	100.793716065707	207
4	1254	100.793716065707	208
4	1254	100.793716065707	209
4	1272	102.700703660655	210
4	1272	102.700703660655	211
4	1272	102.700703660655	212
4	1289	103.71509958403	213
4	1289	103.71509958403	214
4	1289	103.71509958403	215
4	1311	105.671979256788	216
4	1311	105.671979256788	217
4	1311	105.671979256788	218
4	1326	106.676791625148	219
4	1326	106.676791625148	220
4	1326	106.676791625148	221
4	1347	108.171381767954	222
4	1347	108.171381767954	223
4	1347	108.171381767954	224
4	1362	109.269555649618	225
4	1362	109.269555649618	226
4	1362	109.269555649618	227
4	1379	110.955385704827	228
4	1379	110.955385704827	229
4	1379	110.955385704827	230
4	1401	112.498427460385	231
4	1401	112.498427460385	232
4	1401	112.498427460385	233
4	1419	114.433603084733	234
4	1419	114.433603084733	235
4	1419	114.433603084733	236
4	1437	115.988264511095	237
4	1437	115.988264511095	238
4	1437	115.988264511095	239
4	1452	117.889075572118	240
4	1452	117.889075572118	241
4	1452	117.889075572118	242
4	1473	119.283678812814	243
4	1473	119.283678812814	244
4	1473	119.283678812814	245
4	1487	120.727005292683	246
4	1487	120.727005292683	247
4	1487	120.727005292683	248
4	1509	122.123291845386	249
4	1509	122.123291845386	250
4	1509	122.123291845386	251
4	1523	123.728309704103	252
4	1523	123.728309704103	253
4	1523	123.728309704103	254
4	1541	125.168591720532	255
4	1541	125.168591720532	256
4	1541	125.168591720532	257
4	1560	127.06417387155	258
4	1560	127.06417387155	259
4	1560	127.06417387155	260
4	1578	128.805420380413	261
4	1578	128.805420380413	262
4	1578	128.805420380413	263
4	1595	130.515966682279	264
4	1595	130.515966682279	265
4	1595	130.515966682279	266
4	1617	132.457115479432	267
4	1617	132.457115479432	268
4	1617	132.457115479432	269
4	1631	134.365339331262	270
4	1631	134.365339331262	271
4	1631	134.365339331262	272
4	1653	136.053414887966	273
4	1653	136.053414887966	274
4	1653	136.053414887966	275
4	1668	137.715818817673	276
4	1668	137.715818817673	277
4	1668	137.715818817673	278
4	1689	138.892505726928	279
4	1689	138.892505726928	280
4	1689	138.892505726928	281
4	1707	140.409982374627	282
4	1707	140.409982374627	283
4	1707	140.409982374627	284
4	1722	141.974632769485	285
4	1722	141.974632769485	286
4	1722	141.974632769485	287
4	1740	143.863039372865	288
4	1740	143.863039372865	289
4	1740	143.863039372865	290
4	1761	145.333766633004	291
4	1761	145.333766633004	292
4	1761	145.333766633004	293
4	1779	147.151580646163	294
4	1779	147.151580646163	295
4	1779	147.151580646163	296
4	1797	148.523138739887	297
4	1797	148.523138739887	298
4	1797	148.523138739887	299
4	1812	149.845143368908	300
4	1812	149.845143368908	301
4	1812	149.845143368908	302
4	1829	151.545228441223	303
4	1829	151.545228441223	304
4	1829	151.545228441223	305
4	1851	152.730270714591	306
4	1851	152.730270714591	307
4	1851	152.730270714591	308
4	1865	154.275591351801	309
4	1865	154.275591351801	310
4	1865	154.275591351801	311
4	1883	156.276405630194	312
4	1883	156.276405630194	313
4	1883	156.276405630194	314
4	1902	158.178689281371	315
4	1902	158.178689281371	316
4	1902	158.178689281371	317
4	1920	159.677154733632	318
4	1920	159.677154733632	319
4	1920	159.677154733632	320
4	1938	161.112703425186	321
4	1938	161.112703425186	322
4	1938	161.112703425186	323
4	1959	162.979916875276	324
4	1959	162.979916875276	325
4	1959	162.979916875276	326
4	1974	164.436799895976	327
4	1974	164.436799895976	328
4	1974	164.436799895976	329
4	1992	165.544928948124	330
4	1992	165.544928948124	331
4	1992	165.544928948124	332
4	2013	166.608314424916	333
4	2013	166.608314424916	334
4	2013	166.608314424916	335
4	2028	168.469977207641	336
4	2028	168.469977207641	337
4	2028	168.469977207641	338
4	2046	169.59819343843	339
4	2046	169.59819343843	340
4	2046	169.59819343843	341
4	2064	171.379172882477	342
4	2064	171.379172882477	343
4	2064	171.379172882477	344
4	2085	173.285115986999	345
4	2085	173.285115986999	346
4	2085	173.285115986999	347
4	2100	174.550735874124	348
4	2100	174.550735874124	349
4	2100	174.550735874124	350
4	2118	175.822068851111	351
4	2118	175.822068851111	352
4	2118	175.822068851111	353
4	2139	177.510906484552	354
4	2139	177.510906484552	355
4	2139	177.510906484552	356
4	2157	179.049349270874	357
4	2157	179.049349270874	358
4	2157	179.049349270874	359
4	2171	180.064279819817	360
4	2171	180.064279819817	361
4	2171	180.064279819817	362
4	2190	181.482597524704	363
4	2190	181.482597524704	364
4	2190	181.482597524704	365
4	2211	182.656703041422	366
4	2211	182.656703041422	367
4	2211	182.656703041422	368
4	2229	183.738060973456	369
4	2229	183.738060973456	370
4	2229	183.738060973456	371
4	2247	185.343275592155	372
4	2247	185.343275592155	373
4	2247	185.343275592155	374
4	2265	187.307188180185	375
4	2265	187.307188180185	376
4	2265	187.307188180185	377
4	2280	188.647879814005	378
4	2280	188.647879814005	379
4	2280	188.647879814005	380
4	2301	190.232439307556	381
4	2301	190.232439307556	382
4	2301	190.232439307556	383
4	2315	191.550683650637	384
4	2315	191.550683650637	385
4	2315	191.550683650637	386
4	2337	193.201421236353	387
4	2337	193.201421236353	388
4	2337	193.201421236353	389
4	2352	194.342816349972	390
4	2352	194.342816349972	391
4	2352	194.342816349972	392
4	2370	195.812343655597	393
4	2370	195.812343655597	394
4	2370	195.812343655597	395
4	2387	197.536692572114	396
4	2387	197.536692572114	397
4	2387	197.536692572114	398
4	2405	199.258247713379	399
4	2405	199.258247713379	400
4	2405	199.258247713379	401
4	2427	201.052889899462	402
4	2427	201.052889899462	403
4	2427	201.052889899462	404
4	2445	202.776327859029	405
4	2445	202.776327859029	406
4	2445	202.776327859029	407
4	2460	203.774175233299	408
4	2460	203.774175233299	409
4	2460	203.774175233299	410
4	2478	205.767762309049	411
4	2478	205.767762309049	412
4	2478	205.767762309049	413
4	2499	207.499962034182	414
4	2499	207.499962034182	415
4	2499	207.499962034182	416
4	2517	209.124768367374	417
4	2517	209.124768367374	418
4	2517	209.124768367374	419
4	2535	210.623800069487	420
4	2535	210.623800069487	421
4	2535	210.623800069487	422
4	2553	211.779502639578	423
4	2553	211.779502639578	424
4	2553	211.779502639578	425
4	2568	213.642458696048	426
4	2568	213.642458696048	427
4	2568	213.642458696048	428
4	2585	215.201381343165	429
4	2585	215.201381343165	430
4	2585	215.201381343165	431
4	2607	216.617771653103	432
4	2607	216.617771653103	433
4	2607	216.617771653103	434
4	2622	218.538015377249	435
4	2622	218.538015377249	436
4	2622	218.538015377249	437
4	2640	220.056025214472	438
4	2640	220.056025214472	439
4	2640	220.056025214472	440
4	2658	221.278162507612	441
4	2658	221.278162507612	442
4	2658	221.278162507612	443
4	2676	223.139809476296	444
4	2676	223.139809476296	445
4	2676	223.139809476296	446
4	2697	224.221262233141	447
4	2697	224.221262233141	448
4	2697	224.221262233141	449
4	2712	225.248189017111	450
4	2712	225.248189017111	451
4	2712	225.248189017111	452
4	2733	227.058202934327	453
4	2733	227.058202934327	454
4	2733	227.058202934327	455
4	2748	228.882153749031	456
4	2748	228.882153749031	457
4	2748	228.882153749031	458
4	2766	230.657785248979	459
4	2766	230.657785248979	460
4	2766	230.657785248979	461
4	2787	232.120599044525	462
4	2787	232.120599044525	463
4	2787	232.120599044525	464
4	2802	233.671718094968	465
4	2802	233.671718094968	466
4	2802	233.671718094968	467
4	2819	235.421427222629	468
4	2819	235.421427222629	469
4	2819	235.421427222629	470
4	2841	237.357597708121	471
4	2841	237.357597708121	472
4	2841	237.357597708121	473
4	2855	239.112571370055	474
4	2855	239.112571370055	475
4	2855	239.112571370055	476
5	18	0.184136284395	0
5	33	1.776351402321	1
5	54	3.252641254331	2
5	72	4.37176782094	3
5	90	6.145052524778	4
5	108	7.35468756835	5
5	126	8.583272112563	6
5	141	10.183944235532	7
5	162	11.941239448246	8
5	180	12.992615320656	9
5	198	14.935057296159	10
5	216	15.949521542458	11
5	234	17.100362339925	12
5	252	19.002618752645	13
5	270	20.301998322998	14
5	288	21.745609471969	15
5	303	23.30694137012	16
5	324	24.848112174333	17
5	342	26.008485828671	18
5	360	27.072149547805	19
5	375	28.394898598222	20
5	392	29.890790056383	21
5	414	31.446253037054	22
5	428	32.505827750545	23
5	450	34.19155705453	24
5	465	36.094622087474	25
5	486	37.564924789784	26
5	504	38.70322680438	27
5	522	39.859535329663	28
5	540	41.635572339756	29
5	558	42.707586511447	30
5	576	44.475151283038	31
5	591	45.962679977442	32
5	612	46.976918732665	33
5	630	48.578306848731	34
5	648	49.879852599092	35
5	666	51.296426241383	36
5	684	52.764064163668	37
5	702	53.968829022295	38
5	720	55.897490350882	39
5	738	57.688445907326	40
5	756	58.807528057396	41
5	774	60.316932107051	42
5	792	61.787335354168	43
5	810	62.87652013128	44
5	828	64.308816904389	45
5	846	65.375612311046	46
5	860	66.958622504628	47
5	882	68.818577984443	48
5	900	70.414232100198	49
5	914	71.775022078696	50
5	936	72.909751822569	51
5	954	74.570519275653	52
5	972	75.889736106401	53
5	990	77.02928500604	54
5	1008	79.004069858325	55
5	1026	80.292529968179	56
5	1044	81.604614053127	57
5	1062	83.108215415966	58
5	1080	84.743765100747	59
5	1095	86.662695640657	60
5	1116	87.911289536175	61
5	1130	88.925287044762	62
5	1149	90.788867548834	63
5	1167	92.477545227255	64
5	1185	94.053021158782	65
5	1206	95.926186850149	66
5	1224	97.251060271977	67
5	1242	99.179490150257	68
5	1260	100.803716065707	69
5	1278	102.710703660655	70
5	1292	103.72509958403	71
5	1314	105.681979256788	72
5	1332	106.686791625148	73
5	1350	108.181381767954	74
5	1368	109.279555649618	75
5	1383	110.965385704827	76
5	1404	112.508427460385	77
5	1422	114.443603084733	78
5	1440	115.998264511095	79
5	1458	117.899075572118	80
5	1476	119.293678812814	81
5	1490	120.737005292683	82
5	1512	122.133291845386	83
5	1527	123.738309704103	84
5	1545	125.178591720532	85
5	1566	127.07417387155	86
5	1584	128.815420380413	87
5	1599	130.525966682279	88
5	1620	132.467115479432	89
5	1635	134.375339331262	90
5	1656	136.063414887966	91
5	1674	137.725818817673	92
5	1692	138.902505726928	93
5	1710	140.419982374627	94
5	1728	141.984632769485	95
5	1746	143.873039372865	96
5	1764	145.343766633004	97
5	1782	147.161580646163	98
5	1800	148.533138739887	99
5	1818	149.855143368908	100
5	1832	151.555228441223	101
5	1854	152.740270714591	102
5	1868	154.285591351801	103
5	1887	156.286405630194	104
5	1908	158.188689281371	105
5	1926	159.687154733632	106
5	1944	161.122703425186	107
5	1962	162.989916875276	108
5	1980	164.446799895976	109
5	1998	165.554928948124	110
5	2016	166.618314424916	111
5	2034	168.479977207641	112
5	2052	169.60819343843	113
5	2070	171.389172882477	114
5	2088	173.295115986999	115
5	2106	174.560735874124	116
5	2124	175.832068851111	117
5	2142	177.520906484552	118
5	2160	179.059349270874	119
5	2175	180.074279819817	120
5	2196	181.492597524704	121
5	2214	182.666703041422	122
5	2232	183.748060973456	123
5	2250	185.353275592155	124
5	2268	187.317188180185	125
5	2286	188.657879814005	126
5	2304	190.242439307556	127
5	2318	191.560683650637	128
5	2340	193.211421236353	129
5	2358	194.352816349972	130
5	2376	195.822343655597	131
5	2391	197.546692572114	132
5	2409	199.268247713379	133
5	2430	201.062889899462	134
5	2448	202.786327859029	135
5	2466	203.784175233299	136
5	2484	205.777762309049	137
5	2502	207.509962034182	138
5	2520	209.134768367374	139
5	2538	210.633800069487	140
5	2556	211.789502639578	141
5	2574	213.652458696048	142
5	2588	215.211381343165	143
5	2610	216.627771653103	144
5	2628	218.548015377249	145
5	2646	220.066025214472	146
5	2664	221.288162507612	147
5	2682	223.149809476296	148
5	2700	224.231262233141	149
5	2718	225.258189017111	150
5	2736	227.068202934327	151
5	2754	228.892153749031	152
5	2772	230.667785248979	153
5	2790	232.130599044525	154
5	2808	233.681718094968	155
5	2822	235.431427222629	156
5	2844	237.367597708121	157
5	2859	239.122571370055	158

