version 2
run General-1-20231008-06:14:46-15473
attr configname General
attr datetime 20231008-06:14:46
attr experiment General
attr inifile omnetpp.ini
attr iterationvars ""
attr iterationvarsf ""
attr measurement ""
attr network Network1
attr processid 15473
attr repetition 1
attr replication #1
attr resultdir results
attr runnumber 1
attr seedset 1
param Network1.node[*].transmissionTime "uniform(1s, 2s)"
param Network1.node[*].delayTime "uniform(0.01s, 0.2s)"
param Network1.node[*].processingTime exponential(0.01s)
param Network1.node[*].lossProbability 0.0
param Reliability.node[*].transmissionTime "uniform(1s, 2s)"
param Reliability.node[*].delayTime "uniform(0.01s, 0.2s)"
param Reliability.node[*].processingTime exponential(0.01s)
param Reliability.node[*].lossProbability 0.0

vector 0 Network1.node[0] txVector ETV
vector 1 Network1.node[1] txVector ETV
vector 2 Network1.node[3] txVector ETV
vector 3 Network1.node[2] txVector ETV
vector 4 Network1.node[4] txVector ETV
vector 5 Network1.node[5] rxVector ETV
0	1	0.089234179703	0
0	19	2.086418987836	1
0	37	3.932729906055	2
0	55	5.871857700988	3
0	73	7.144907678363	4
0	91	8.928222150893	5
0	109	10.397460675684	6
0	127	11.981849799517	7
0	145	13.522450307968	8
0	163	15.414586176515	9
0	181	17.062335572323	10
0	199	18.849287046237	11
0	217	20.002216868686	12
0	235	21.553541807343	13
0	253	22.602846053081	14
0	271	24.570513978718	15
0	289	26.287905580714	16
0	307	28.204315453885	17
0	325	29.278284451809	18
0	343	31.260041086819	19
0	361	32.36937715055	20
0	379	33.443635584671	21
0	397	35.066927699257	22
0	415	36.823263089523	23
0	433	38.275264696103	24
0	451	39.734809976887	25
0	469	41.089394663345	26
0	487	43.039437970497	27
0	505	44.230698240573	28
0	523	45.485400987907	29
0	541	46.52187069005	30
0	559	48.05353879661	31
0	577	49.085495015724	32
0	595	50.169041362476	33
0	613	51.407252277598	34
0	631	52.882405015059	35
0	649	54.215689320468	36
0	667	56.006062842325	37
0	685	57.90512684209	38
0	703	59.530238431764	39
0	721	60.83411685948	40
0	739	62.802129513004	41
0	757	64.26028039132	42
0	775	65.747854763993	43
0	793	66.948329525187	44
0	811	68.451326057666	45
0	829	69.534181519297	46
0	847	71.269913636965	47
0	865	72.853873425282	48
0	883	74.524805437892	49
0	901	76.133618526745	50
0	919	77.971422394391	51
0	937	79.461122003736	52
0	955	80.962758233191	53
0	973	82.6128118207	54
0	991	83.946251084914	55
0	1009	85.832750568751	56
0	1027	86.934758213468	57
0	1045	87.986399448363	58
0	1063	89.290610273953	59
0	1081	91.245820445826	60
0	1099	92.455152881916	61
0	1117	93.918072967909	62
0	1135	95.273581246732	63
0	1153	96.408187399272	64
0	1171	97.830953129687	65
0	1189	99.355229032811	66
0	1207	100.896521611026	67
0	1225	102.582275197495	68
0	1243	103.610544700062	69
0	1261	104.954609889889	70
0	1279	105.999537705563	71
0	1297	107.199502708742	72
0	1315	108.768056926436	73
0	1333	110.688004154132	74
0	1351	112.503799411121	75
0	1369	114.481517265669	76
0	1387	115.904890821201	77
0	1405	117.431865409601	78
0	1423	119.381820445766	79
0	1441	121.286730538008	80
0	1459	122.417944449351	81
0	1477	124.335983518862	82
0	1495	125.516099980452	83
0	1513	127.10356471094	84
0	1531	128.712347496419	85
0	1549	130.42116479634	86
0	1567	132.072709927221	87
0	1585	133.487813406742	88
0	1603	134.519009996789	89
0	1621	136.452158599278	90
0	1639	137.707866825048	91
0	1657	139.133532188717	92
0	1675	140.290342382505	93
0	1693	142.232887330349	94
0	1711	143.240865219036	95
0	1729	145.223661246594	96
0	1747	146.528687426239	97
0	1765	147.630093952292	98
0	1783	149.587521638372	99
0	1801	151.559625349124	100
0	1819	152.995817007148	101
0	1837	154.810905210325	102
0	1855	156.286401646329	103
0	1873	158.156208733214	104
0	1891	159.381290610298	105
0	1909	160.72151717532	106
0	1927	162.064074615832	107
0	1945	163.613864923711	108
0	1963	164.709496554569	109
0	1981	165.757014506613	110
0	1999	167.106743876007	111
0	2017	168.138939476222	112
0	2035	169.647349676699	113
0	2053	171.411512727034	114
0	2071	172.685249153408	115
0	2089	174.195576877915	116
0	2107	176.172667677165	117
0	2125	177.677763729473	118
0	2143	179.464674729039	119
0	2161	180.543904542574	120
0	2179	182.287978163804	121
0	2197	184.135217635776	122
0	2215	185.649980813614	123
0	2233	186.701385865337	124
0	2251	187.935741769732	125
0	2269	189.137858334114	126
0	2287	190.271838904475	127
0	2305	191.567433002289	128
0	2323	193.214799898794	129
0	2341	194.640371352784	130
0	2359	195.939998590504	131
0	2377	197.723239281099	132
0	2395	199.519555120147	133
0	2413	200.598693591659	134
0	2431	202.457455229596	135
0	2449	203.93162280519	136
0	2467	205.502896330203	137
0	2485	207.007884919993	138
0	2503	208.71318952099	139
0	2521	210.695181408315	140
0	2539	211.872487039887	141
0	2557	213.853877309593	142
0	2575	214.854466410935	143
0	2593	215.925151618313	144
0	2611	217.286093469825	145
0	2629	219.235165907186	146
0	2647	220.802566767786	147
0	2665	222.489191814209	148
0	2683	224.397700316156	149
0	2701	225.553975554532	150
0	2719	226.710312599199	151
0	2737	228.129937178338	152
0	2755	229.758321095839	153
0	2773	231.14291674469	154
0	2791	232.177457094773	155
0	2809	234.029998222015	156
0	2827	235.769738137837	157
0	2845	237.365442207897	158
0	2863	238.772867221966	159
1	3	0.126198958082	0
1	3	0.126198958082	1
1	3	0.126198958082	2
1	21	2.100177179763	3
1	21	2.100177179763	4
1	21	2.100177179763	5
1	39	3.957798233545	6
1	39	3.957798233545	7
1	39	3.957798233545	8
1	57	5.88246840717	9
1	57	5.88246840717	10
1	57	5.88246840717	11
1	75	7.160227129908	12
1	75	7.160227129908	13
1	75	7.160227129908	14
1	93	8.93923331578	15
1	93	8.93923331578	16
1	93	8.93923331578	17
1	111	10.415805756346	18
1	111	10.415805756346	19
1	111	10.415805756346	20
1	129	12.006352161361	21
1	129	12.006352161361	22
1	129	12.006352161361	23
1	147	13.537191779509	24
1	147	13.537191779509	25
1	147	13.537191779509	26
1	165	15.42895479146	27
1	165	15.42895479146	28
1	165	15.42895479146	29
1	183	17.072997689679	30
1	183	17.072997689679	31
1	183	17.072997689679	32
1	201	18.867929579265	33
1	201	18.867929579265	34
1	201	18.867929579265	35
1	219	20.01294345194	36
1	219	20.01294345194	37
1	219	20.01294345194	38
1	237	21.570857816231	39
1	237	21.570857816231	40
1	237	21.570857816231	41
1	255	22.61610777156	42
1	255	22.61610777156	43
1	255	22.61610777156	44
1	273	24.590005943332	45
1	273	24.590005943332	46
1	273	24.590005943332	47
1	291	26.313136277675	48
1	291	26.313136277675	49
1	291	26.313136277675	50
1	309	28.215965817868	51
1	309	28.215965817868	52
1	309	28.215965817868	53
1	327	29.310635698855	54
1	327	29.310635698855	55
1	327	29.310635698855	56
1	345	31.271619711093	57
1	345	31.271619711093	58
1	345	31.271619711093	59
1	363	32.380379987511	60
1	363	32.380379987511	61
1	363	32.380379987511	62
1	381	33.457558864963	63
1	381	33.457558864963	64
1	381	33.457558864963	65
1	399	35.081996222484	66
1	399	35.081996222484	67
1	399	35.081996222484	68
1	417	36.849783347096	69
1	417	36.849783347096	70
1	417	36.849783347096	71
1	435	38.317788313127	72
1	435	38.317788313127	73
1	435	38.317788313127	74
1	453	39.767470604043	75
1	453	39.767470604043	76
1	453	39.767470604043	77
1	471	41.103157768439	78
1	471	41.103157768439	79
1	471	41.103157768439	80
1	489	43.058325697401	81
1	489	43.058325697401	82
1	489	43.058325697401	83
1	507	44.241556596621	84
1	507	44.241556596621	85
1	507	44.241556596621	86
1	525	45.510978927166	87
1	525	45.510978927166	88
1	525	45.510978927166	89
1	543	46.533265549112	90
1	543	46.533265549112	91
1	543	46.533265549112	92
1	561	48.090852834111	93
1	561	48.090852834111	94
1	561	48.090852834111	95
1	579	49.095947838087	96
1	579	49.095947838087	97
1	579	49.095947838087	98
1	597	50.179495708869	99
1	597	50.179495708869	100
1	597	50.179495708869	101
1	615	51.436026907663	102
1	615	51.436026907663	103
1	615	51.436026907663	104
1	633	52.892494541414	105
1	633	52.892494541414	106
1	633	52.892494541414	107
1	651	54.228141924051	108
1	651	54.228141924051	109
1	651	54.228141924051	110
1	669	56.028627074305	111
1	669	56.028627074305	112
1	669	56.028627074305	113
1	687	57.919004840194	114
1	687	57.919004840194	115
1	687	57.919004840194	116
1	705	59.544003643043	117
1	705	59.544003643043	118
1	705	59.544003643043	119
1	723	60.848572862617	120
1	723	60.848572862617	121
1	723	60.848572862617	122
1	741	62.833960486158	123
1	741	62.833960486158	124
1	741	62.833960486158	125
1	759	64.288694725467	126
1	759	64.288694725467	127
1	759	64.288694725467	128
1	777	65.779045165567	129
1	777	65.779045165567	130
1	777	65.779045165567	131
1	795	66.973821470925	132
1	795	66.973821470925	133
1	795	66.973821470925	134
1	813	68.46837271473	135
1	813	68.46837271473	136
1	813	68.46837271473	137
1	831	69.568220717445	138
1	831	69.568220717445	139
1	831	69.568220717445	140
1	849	71.288435557983	141
1	849	71.288435557983	142
1	849	71.288435557983	143
1	867	72.864775479582	144
1	867	72.864775479582	145
1	867	72.864775479582	146
1	885	74.53592829658	147
1	885	74.53592829658	148
1	885	74.53592829658	149
1	903	76.155525979956	150
1	903	76.155525979956	151
1	903	76.155525979956	152
1	921	78.003438463398	153
1	921	78.003438463398	154
1	921	78.003438463398	155
1	939	79.485919940199	156
1	939	79.485919940199	157
1	939	79.485919940199	158
1	957	80.974312414557	159
1	957	80.974312414557	160
1	957	80.974312414557	161
1	975	82.645320917238	162
1	975	82.645320917238	163
1	975	82.645320917238	164
1	993	83.964792327846	165
1	993	83.964792327846	166
1	993	83.964792327846	167
1	1011	85.873352424288	168
1	1011	85.873352424288	169
1	1011	85.873352424288	170
1	1029	86.946251507246	171
1	1029	86.946251507246	172
1	1029	86.946251507246	173
1	1047	88.01084393638	174
1	1047	88.01084393638	175
1	1047	88.01084393638	176
1	1065	89.305985257878	177
1	1065	89.305985257878	178
1	1065	89.305985257878	179
1	1083	91.264622015952	180
1	1083	91.264622015952	181
1	1083	91.264622015952	182
1	1101	92.475245640034	183
1	1101	92.475245640034	184
1	1101	92.475245640034	185
1	1119	93.933128017779	186
1	1119	93.933128017779	187
1	1119	93.933128017779	188
1	1137	95.300068182725	189
1	1137	95.300068182725	190
1	1137	95.300068182725	191
1	1155	96.434566355587	192
1	1155	96.434566355587	193
1	1155	96.434566355587	194
1	1173	97.845737605679	195
1	1173	97.845737605679	196
1	1173	97.845737605679	197
1	1191	99.368413179559	198
1	1191	99.368413179559	199
1	1191	99.368413179559	200
1	1209	100.915729729394	201
1	1209	100.915729729394	202
1	1209	100.915729729394	203
1	1227	102.592979085686	204
1	1227	102.592979085686	205
1	1227	102.592979085686	206
1	1245	103.62103097335	207
1	1245	103.62103097335	208
1	1245	103.62103097335	209
1	1263	104.969074833903	210
1	1263	104.969074833903	211
1	1263	104.969074833903	212
1	1281	106.010329969207	213
1	1281	106.010329969207	214
1	1281	106.010329969207	215
1	1299	107.218827971254	216
1	1299	107.218827971254	217
1	1299	107.218827971254	218
1	1317	108.77877614046	219
1	1317	108.77877614046	220
1	1317	108.77877614046	221
1	1335	110.701032303543	222
1	1335	110.701032303543	223
1	1335	110.701032303543	224
1	1353	112.519171177339	225
1	1353	112.519171177339	226
1	1353	112.519171177339	227
1	1371	114.493465370343	228
1	1371	114.493465370343	229
1	1371	114.493465370343	230
1	1389	115.915888384444	231
1	1389	115.915888384444	232
1	1389	115.915888384444	233
1	1407	117.442274623021	234
1	1407	117.442274623021	235
1	1407	117.442274623021	236
1	1425	119.39701218115	237
1	1425	119.39701218115	238
1	1425	119.39701218115	239
1	1443	121.298479161108	240
1	1443	121.298479161108	241
1	1443	121.298479161108	242
1	1461	122.428861870516	243
1	1461	122.428861870516	244
1	1461	122.428861870516	245
1	1479	124.35564185298	246
1	1479	124.35564185298	247
1	1479	124.35564185298	248
1	1497	125.545729143774	249
1	1497	125.545729143774	250
1	1497	125.545729143774	251
1	1515	127.114269662705	252
1	1515	127.114269662705	253
1	1515	127.114269662705	254
1	1533	128.724010562257	255
1	1533	128.724010562257	256
1	1533	128.724010562257	257
1	1551	130.432716219247	258
1	1551	130.432716219247	259
1	1551	130.432716219247	260
1	1569	132.090151641161	261
1	1569	132.090151641161	262
1	1569	132.090151641161	263
1	1587	133.498461034179	264
1	1587	133.498461034179	265
1	1587	133.498461034179	266
1	1605	134.531846809035	267
1	1605	134.531846809035	268
1	1605	134.531846809035	269
1	1623	136.467824666677	270
1	1623	136.467824666677	271
1	1623	136.467824666677	272
1	1641	137.73169772023	273
1	1641	137.73169772023	274
1	1641	137.73169772023	275
1	1659	139.148452496096	276
1	1659	139.148452496096	277
1	1659	139.148452496096	278
1	1677	140.30448588722	279
1	1677	140.30448588722	280
1	1677	140.30448588722	281
1	1695	142.255337553806	282
1	1695	142.255337553806	283
1	1695	142.255337553806	284
1	1713	143.260238055079	285
1	1713	143.260238055079	286
1	1713	143.260238055079	287
1	1731	145.240428429739	288
1	1731	145.240428429739	289
1	1731	145.240428429739	290
1	1749	146.547480694105	291
1	1749	146.547480694105	292
1	1749	146.547480694105	293
1	1767	147.640763819792	294
1	1767	147.640763819792	295
1	1767	147.640763819792	296
1	1785	149.599133185791	297
1	1785	149.599133185791	298
1	1785	149.599133185791	299
1	1803	151.576780213431	300
1	1803	151.576780213431	301
1	1803	151.576780213431	302
1	1821	153.005840001899	303
1	1821	153.005840001899	304
1	1821	153.005840001899	305
1	1839	154.823435351928	306
1	1839	154.823435351928	307
1	1839	154.823435351928	308
1	1857	156.296456906999	309
1	1857	156.296456906999	310
1	1857	156.296456906999	311
1	1875	158.167806663544	312
1	1875	158.167806663544	313
1	1875	158.167806663544	314
1	1893	159.40067072551	315
1	1893	159.40067072551	316
1	1893	159.40067072551	317
1	1911	160.736913698392	318
1	1911	160.736913698392	319
1	1911	160.736913698392	320
1	1929	162.087833386562	321
1	1929	162.087833386562	322
1	1929	162.087833386562	323
1	1947	163.624982446297	324
1	1947	163.624982446297	325
1	1947	163.624982446297	326
1	1965	164.720550586584	327
1	1965	164.720550586584	328
1	1965	164.720550586584	329
1	1983	165.773724459521	330
1	1983	165.773724459521	331
1	1983	165.773724459521	332
1	2001	167.123255874344	333
1	2001	167.123255874344	334
1	2001	167.123255874344	335
1	2019	168.169742710681	336
1	2019	168.169742710681	337
1	2019	168.169742710681	338
1	2037	169.67426830225	339
1	2037	169.67426830225	340
1	2037	169.67426830225	341
1	2055	171.440370999572	342
1	2055	171.440370999572	343
1	2055	171.440370999572	344
1	2073	172.700457671721	345
1	2073	172.700457671721	346
1	2073	172.700457671721	347
1	2091	174.234053646957	348
1	2091	174.234053646957	349
1	2091	174.234053646957	350
1	2109	176.193984733106	351
1	2109	176.193984733106	352
1	2109	176.193984733106	353
1	2127	177.696331446561	354
1	2127	177.696331446561	355
1	2127	177.696331446561	356
1	2145	179.478247079561	357
1	2145	179.478247079561	358
1	2145	179.478247079561	359
1	2163	180.55927428246	360
1	2163	180.55927428246	361
1	2163	180.55927428246	362
1	2181	182.317945210273	363
1	2181	182.317945210273	364
1	2181	182.317945210273	365
1	2199	184.148280530176	366
1	2199	184.148280530176	367
1	2199	184.148280530176	368
1	2217	185.673230602787	369
1	2217	185.673230602787	370
1	2217	185.673230602787	371
1	2235	186.73041819759	372
1	2235	186.73041819759	373
1	2235	186.73041819759	374
1	2253	187.964936088257	375
1	2253	187.964936088257	376
1	2253	187.964936088257	377
1	2271	189.153415309426	378
1	2271	189.153415309426	379
1	2271	189.153415309426	380
1	2289	190.286121357412	381
1	2289	190.286121357412	382
1	2289	190.286121357412	383
1	2307	191.593470220827	384
1	2307	191.593470220827	385
1	2307	191.593470220827	386
1	2325	193.25646194435	387
1	2325	193.25646194435	388
1	2325	193.25646194435	389
1	2343	194.658079105119	390
1	2343	194.658079105119	391
1	2343	194.658079105119	392
1	2361	195.955801053037	393
1	2361	195.955801053037	394
1	2361	195.955801053037	395
1	2379	197.740265870382	396
1	2379	197.740265870382	397
1	2379	197.740265870382	398
1	2397	199.551461597612	399
1	2397	199.551461597612	400
1	2397	199.551461597612	401
1	2415	200.624744476448	402
1	2415	200.624744476448	403
1	2415	200.624744476448	404
1	2433	202.470573771926	405
1	2433	202.470573771926	406
1	2433	202.470573771926	407
1	2451	203.945560112849	408
1	2451	203.945560112849	409
1	2451	203.945560112849	410
1	2469	205.516131813971	411
1	2469	205.516131813971	412
1	2469	205.516131813971	413
1	2487	207.019270467968	414
1	2487	207.019270467968	415
1	2487	207.019270467968	416
1	2505	208.738437699798	417
1	2505	208.738437699798	418
1	2505	208.738437699798	419
1	2523	210.71626005054	420
1	2523	210.71626005054	421
1	2523	210.71626005054	422
1	2541	211.887987798747	423
1	2541	211.887987798747	424
1	2541	211.887987798747	425
1	2559	213.872204277878	426
1	2559	213.872204277878	427
1	2559	213.872204277878	428
1	2577	214.868850447401	429
1	2577	214.868850447401	430
1	2577	214.868850447401	431
1	2595	215.957079623343	432
1	2595	215.957079623343	433
1	2595	215.957079623343	434
1	2613	217.326531467976	435
1	2613	217.326531467976	436
1	2613	217.326531467976	437
1	2631	219.252408027666	438
1	2631	219.252408027666	439
1	2631	219.252408027666	440
1	2649	220.840568430176	441
1	2649	220.840568430176	442
1	2649	220.840568430176	443
1	2667	222.50809110189	444
1	2667	222.50809110189	445
1	2667	222.50809110189	446
1	2685	224.408191294459	447
1	2685	224.408191294459	448
1	2685	224.408191294459	449
1	2703	225.564256683901	450
1	2703	225.564256683901	451
1	2703	225.564256683901	452
1	2721	226.735144562741	453
1	2721	226.735144562741	454
1	2721	226.735144562741	455
1	2739	228.153379665412	456
1	2739	228.153379665412	457
1	2739	228.153379665412	458
1	2757	229.795189241096	459
1	2757	229.795189241096	460
1	2757	229.795189241096	461
1	2775	231.164417894106	462
1	2775	231.164417894106	463
1	2775	231.164417894106	464
1	2793	232.199592346665	465
1	2793	232.199592346665	466
1	2793	232.199592346665	467
1	2811	234.047844035777	468
1	2811	234.047844035777	469
1	2811	234.047844035777	470
1	2829	235.784221696836	471
1	2829	235.784221696836	472
1	2829	235.784221696836	473
1	2847	237.377000439042	474
1	2847	237.377000439042	475
1	2847	237.377000439042	476
1	2865	238.799031265473	477
1	2865	238.799031265473	478
1	2865	238.799031265473	479
2	7	0.137786054054	0
2	7	0.137786054054	1
2	7	0.137786054054	2
2	30	2.131224152726	3
2	30	2.131224152726	4
2	30	2.131224152726	5
2	43	3.971558619769	6
2	43	3.971558619769	7
2	43	3.971558619769	8
2	62	5.897934794091	9
2	62	5.897934794091	10
2	62	5.897934794091	11
2	87	7.215200236592	12
2	87	7.215200236592	13
2	87	7.215200236592	14
2	97	8.95062626484	15
2	97	8.95062626484	16
2	97	8.95062626484	17
2	116	10.434704813753	18
2	116	10.434704813753	19
2	116	10.434704813753	20
2	133	12.023585939061	21
2	133	12.023585939061	22
2	133	12.023585939061	23
2	156	13.57343465001	24
2	156	13.57343465001	25
2	156	13.57343465001	26
2	173	15.46157750041	27
2	173	15.46157750041	28
2	173	15.46157750041	29
2	187	17.088242487267	30
2	187	17.088242487267	31
2	187	17.088242487267	32
2	205	18.882349881034	33
2	205	18.882349881034	34
2	205	18.882349881034	35
2	228	20.049913881705	36
2	228	20.049913881705	37
2	228	20.049913881705	38
2	242	21.581123422412	39
2	242	21.581123422412	40
2	242	21.581123422412	41
2	260	22.634920851517	42
2	260	22.634920851517	43
2	260	22.634920851517	44
2	277	24.613754410278	45
2	277	24.613754410278	46
2	277	24.613754410278	47
2	295	26.331339652974	48
2	295	26.331339652974	49
2	295	26.331339652974	50
2	314	28.234673231469	51
2	314	28.234673231469	52
2	314	28.234673231469	53
2	332	29.321361643903	54
2	332	29.321361643903	55
2	332	29.321361643903	56
2	350	31.295297751964	57
2	350	31.295297751964	58
2	350	31.295297751964	59
2	368	32.393395297482	60
2	368	32.393395297482	61
2	368	32.393395297482	62
2	386	33.482350772821	63
2	386	33.482350772821	64
2	386	33.482350772821	65
2	407	35.116718854311	66
2	407	35.116718854311	67
2	407	35.116718854311	68
2	429	36.892822928887	69
2	429	36.892822928887	70
2	429	36.892822928887	71
2	440	38.329726542702	72
2	440	38.329726542702	73
2	440	38.329726542702	74
2	458	39.801050769418	75
2	458	39.801050769418	76
2	458	39.801050769418	77
2	475	41.118843663948	78
2	475	41.118843663948	79
2	475	41.118843663948	80
2	494	43.073776309033	81
2	494	43.073776309033	82
2	494	43.073776309033	83
2	511	44.260106471975	84
2	511	44.260106471975	85
2	511	44.260106471975	86
2	529	45.524875056382	87
2	529	45.524875056382	88
2	529	45.524875056382	89
2	552	46.579686302219	90
2	552	46.579686302219	91
2	552	46.579686302219	92
2	565	48.104002794914	93
2	565	48.104002794914	94
2	565	48.104002794914	95
2	583	49.114361015763	96
2	583	49.114361015763	97
2	583	49.114361015763	98
2	602	50.210287056868	99
2	602	50.210287056868	100
2	602	50.210287056868	101
2	624	51.470832733994	102
2	624	51.470832733994	103
2	624	51.470832733994	104
2	642	52.921577825618	105
2	642	52.921577825618	106
2	642	52.921577825618	107
2	655	54.245994770677	108
2	655	54.245994770677	109
2	655	54.245994770677	110
2	678	56.05925664623	111
2	678	56.05925664623	112
2	678	56.05925664623	113
2	692	57.941162493785	114
2	692	57.941162493785	115
2	692	57.941162493785	116
2	709	59.558239385914	117
2	709	59.558239385914	118
2	709	59.558239385914	119
2	735	60.895358338665	120
2	735	60.895358338665	121
2	735	60.895358338665	122
2	749	62.857650422513	123
2	749	62.857650422513	124
2	749	62.857650422513	125
2	771	64.344501168131	126
2	771	64.344501168131	127
2	771	64.344501168131	128
2	785	65.805069999276	129
2	785	65.805069999276	130
2	785	65.805069999276	131
2	807	67.015869799133	132
2	807	67.015869799133	133
2	807	67.015869799133	134
2	818	68.483969702176	135
2	818	68.483969702176	136
2	818	68.483969702176	137
2	840	69.595593990841	138
2	840	69.595593990841	139
2	840	69.595593990841	140
2	857	71.312494876344	141
2	857	71.312494876344	142
2	857	71.312494876344	143
2	875	72.898281281544	144
2	875	72.898281281544	145
2	875	72.898281281544	146
2	889	74.569509489603	147
2	889	74.569509489603	148
2	889	74.569509489603	149
2	907	76.177943503906	150
2	907	76.177943503906	151
2	907	76.177943503906	152
2	926	78.01650775764	153
2	926	78.01650775764	154
2	926	78.01650775764	155
2	944	79.501604352153	156
2	944	79.501604352153	157
2	944	79.501604352153	158
2	965	81.003937132302	159
2	965	81.003937132302	160
2	965	81.003937132302	161
2	980	82.662603845364	162
2	980	82.662603845364	163
2	980	82.662603845364	164
2	997	83.977378743668	165
2	997	83.977378743668	166
2	997	83.977378743668	167
2	1019	85.89545489982	168
2	1019	85.89545489982	169
2	1019	85.89545489982	170
2	1033	86.958171834586	171
2	1033	86.958171834586	172
2	1033	86.958171834586	173
2	1052	88.02182642941	174
2	1052	88.02182642941	175
2	1052	88.02182642941	176
2	1069	89.325998729512	177
2	1069	89.325998729512	178
2	1069	89.325998729512	179
2	1087	91.276103104257	180
2	1087	91.276103104257	181
2	1087	91.276103104257	182
2	1105	92.491479198185	183
2	1105	92.491479198185	184
2	1105	92.491479198185	185
2	1124	93.959734735659	186
2	1124	93.959734735659	187
2	1124	93.959734735659	188
2	1145	95.329680701704	189
2	1145	95.329680701704	190
2	1145	95.329680701704	191
2	1164	96.463933863888	192
2	1164	96.463933863888	193
2	1164	96.463933863888	194
2	1181	97.870316992222	195
2	1181	97.870316992222	196
2	1181	97.870316992222	197
2	1195	99.378683067877	198
2	1195	99.378683067877	199
2	1195	99.378683067877	200
2	1213	100.933801505884	201
2	1213	100.933801505884	202
2	1213	100.933801505884	203
2	1231	102.604720639367	204
2	1231	102.604720639367	205
2	1231	102.604720639367	206
2	1249	103.633397471756	207
2	1249	103.633397471756	208
2	1249	103.633397471756	209
2	1268	104.994315779672	210
2	1268	104.994315779672	211
2	1268	104.994315779672	212
2	1286	106.027895045136	213
2	1286	106.027895045136	214
2	1286	106.027895045136	215
2	1307	107.24431854376	216
2	1307	107.24431854376	217
2	1307	107.24431854376	218
2	1322	108.802249859837	219
2	1322	108.802249859837	220
2	1322	108.802249859837	221
2	1343	110.73071037471	222
2	1343	110.73071037471	223
2	1343	110.73071037471	224
2	1357	112.548683215963	225
2	1357	112.548683215963	226
2	1357	112.548683215963	227
2	1375	114.50860477381	228
2	1375	114.50860477381	229
2	1375	114.50860477381	230
2	1398	115.947346634877	231
2	1398	115.947346634877	232
2	1398	115.947346634877	233
2	1415	117.469885104005	234
2	1415	117.469885104005	235
2	1415	117.469885104005	236
2	1429	119.412948621032	237
2	1429	119.412948621032	238
2	1429	119.412948621032	239
2	1447	121.315505089779	240
2	1447	121.315505089779	241
2	1447	121.315505089779	242
2	1465	122.441760570377	243
2	1465	122.441760570377	244
2	1465	122.441760570377	245
2	1484	124.369529843258	246
2	1484	124.369529843258	247
2	1484	124.369529843258	248
2	1501	125.557171758231	249
2	1501	125.557171758231	250
2	1501	125.557171758231	251
2	1519	127.126371339934	252
2	1519	127.126371339934	253
2	1519	127.126371339934	254
2	1537	128.741084644628	255
2	1537	128.741084644628	256
2	1537	128.741084644628	257
2	1556	130.447969475329	258
2	1556	130.447969475329	259
2	1556	130.447969475329	260
2	1573	132.109816612092	261
2	1573	132.109816612092	262
2	1573	132.109816612092	263
2	1591	133.511960706168	264
2	1591	133.511960706168	265
2	1591	133.511960706168	266
2	1614	134.567340403756	267
2	1614	134.567340403756	268
2	1614	134.567340403756	269
2	1631	136.492954327658	270
2	1631	136.492954327658	271
2	1631	136.492954327658	272
2	1645	137.74427633245	273
2	1645	137.74427633245	274
2	1645	137.74427633245	275
2	1663	139.160315077643	276
2	1663	139.160315077643	277
2	1663	139.160315077643	278
2	1682	140.318678089587	279
2	1682	140.318678089587	280
2	1682	140.318678089587	281
2	1703	142.284973781451	282
2	1703	142.284973781451	283
2	1703	142.284973781451	284
2	1718	143.280430342755	285
2	1718	143.280430342755	286
2	1718	143.280430342755	287
2	1735	145.251097736665	288
2	1735	145.251097736665	289
2	1735	145.251097736665	290
2	1753	146.558110482747	291
2	1753	146.558110482747	292
2	1753	146.558110482747	293
2	1772	147.658222328033	294
2	1772	147.658222328033	295
2	1772	147.658222328033	296
2	1789	149.613664699204	297
2	1789	149.613664699204	298
2	1789	149.613664699204	299
2	1807	151.594908689681	300
2	1807	151.594908689681	301
2	1807	151.594908689681	302
2	1830	153.055433076756	303
2	1830	153.055433076756	304
2	1830	153.055433076756	305
2	1843	154.834969442758	306
2	1843	154.834969442758	307
2	1843	154.834969442758	308
2	1862	156.311872094634	309
2	1862	156.311872094634	310
2	1862	156.311872094634	311
2	1879	158.179356922435	312
2	1879	158.179356922435	313
2	1879	158.179356922435	314
2	1898	159.415756657673	315
2	1898	159.415756657673	316
2	1898	159.415756657673	317
2	1915	160.750785427462	318
2	1915	160.750785427462	319
2	1915	160.750785427462	320
2	1933	162.102128414861	321
2	1933	162.102128414861	322
2	1933	162.102128414861	323
2	1952	163.638962794941	324
2	1952	163.638962794941	325
2	1952	163.638962794941	326
2	1970	164.739026214448	327
2	1970	164.739026214448	328
2	1970	164.739026214448	329
2	1988	165.79181379623	330
2	1988	165.79181379623	331
2	1988	165.79181379623	332
2	2006	167.147637314499	333
2	2006	167.147637314499	334
2	2006	167.147637314499	335
2	2024	168.194343798045	336
2	2024	168.194343798045	337
2	2024	168.194343798045	338
2	2042	169.693877549331	339
2	2042	169.693877549331	340
2	2042	169.693877549331	341
2	2059	171.45089354118	342
2	2059	171.45089354118	343
2	2059	171.45089354118	344
2	2078	172.728872768502	345
2	2078	172.728872768502	346
2	2078	172.728872768502	347
2	2099	174.266866846675	348
2	2099	174.266866846675	349
2	2099	174.266866846675	350
2	2114	176.217166414874	351
2	2114	176.217166414874	352
2	2114	176.217166414874	353
2	2131	177.709185502952	354
2	2131	177.709185502952	355
2	2131	177.709185502952	356
2	2149	179.49491701637	357
2	2149	179.49491701637	358
2	2149	179.49491701637	359
2	2168	180.571849059827	360
2	2168	180.571849059827	361
2	2168	180.571849059827	362
2	2186	182.336999338934	363
2	2186	182.336999338934	364
2	2186	182.336999338934	365
2	2203	184.15835398903	366
2	2203	184.15835398903	367
2	2203	184.15835398903	368
2	2221	185.684542569989	369
2	2221	185.684542569989	370
2	2221	185.684542569989	371
2	2240	186.744032856883	372
2	2240	186.744032856883	373
2	2240	186.744032856883	374
2	2257	187.978003210243	375
2	2257	187.978003210243	376
2	2257	187.978003210243	377
2	2276	189.179822694852	378
2	2276	189.179822694852	379
2	2276	189.179822694852	380
2	2294	190.308066485353	381
2	2294	190.308066485353	382
2	2294	190.308066485353	383
2	2311	191.607335152785	384
2	2311	191.607335152785	385
2	2311	191.607335152785	386
2	2333	193.28365148713	387
2	2333	193.28365148713	388
2	2333	193.28365148713	389
2	2351	194.681150155572	390
2	2351	194.681150155572	391
2	2351	194.681150155572	392
2	2366	195.973341636871	393
2	2366	195.973341636871	394
2	2366	195.973341636871	395
2	2387	197.771351514755	396
2	2387	197.771351514755	397
2	2387	197.771351514755	398
2	2401	199.571356654832	399
2	2401	199.571356654832	400
2	2401	199.571356654832	401
2	2419	200.642059287622	402
2	2419	200.642059287622	403
2	2419	200.642059287622	404
2	2437	202.482189977416	405
2	2437	202.482189977416	406
2	2437	202.482189977416	407
2	2455	203.955785345488	408
2	2455	203.955785345488	409
2	2455	203.955785345488	410
2	2473	205.534888253062	411
2	2473	205.534888253062	412
2	2473	205.534888253062	413
2	2491	207.035628645295	414
2	2491	207.035628645295	415
2	2491	207.035628645295	416
2	2514	208.770063020495	417
2	2514	208.770063020495	418
2	2514	208.770063020495	419
2	2527	210.729042538645	420
2	2527	210.729042538645	421
2	2527	210.729042538645	422
2	2546	211.906937670916	423
2	2546	211.906937670916	424
2	2546	211.906937670916	425
2	2564	213.893364235889	426
2	2564	213.893364235889	427
2	2564	213.893364235889	428
2	2581	214.903354296605	429
2	2581	214.903354296605	430
2	2581	214.903354296605	431
2	2600	215.974780059352	432
2	2600	215.974780059352	433
2	2600	215.974780059352	434
2	2618	217.348209646499	435
2	2618	217.348209646499	436
2	2618	217.348209646499	437
2	2636	219.27613815599	438
2	2636	219.27613815599	439
2	2636	219.27613815599	440
2	2653	220.853265333802	441
2	2653	220.853265333802	442
2	2653	220.853265333802	443
2	2672	222.52620816185	444
2	2672	222.52620816185	445
2	2672	222.52620816185	446
2	2693	224.445638892719	447
2	2693	224.445638892719	448
2	2693	224.445638892719	449
2	2708	225.577502912597	450
2	2708	225.577502912597	451
2	2708	225.577502912597	452
2	2726	226.748385346749	453
2	2726	226.748385346749	454
2	2726	226.748385346749	455
2	2743	228.164111202425	456
2	2743	228.164111202425	457
2	2743	228.164111202425	458
2	2762	229.809553348082	459
2	2762	229.809553348082	460
2	2762	229.809553348082	461
2	2779	231.189158460769	462
2	2779	231.189158460769	463
2	2779	231.189158460769	464
2	2797	232.231484597156	465
2	2797	232.231484597156	466
2	2797	232.231484597156	467
2	2815	234.058776140055	468
2	2815	234.058776140055	469
2	2815	234.058776140055	470
2	2834	235.826278974496	471
2	2834	235.826278974496	472
2	2834	235.826278974496	473
2	2851	237.393481238913	474
2	2851	237.393481238913	475
2	2851	237.393481238913	476
2	2869	238.813841383711	477
2	2869	238.813841383711	478
2	2869	238.813841383711	479
3	8	0.139799085561	0
3	8	0.139799085561	1
3	8	0.139799085561	2
3	25	2.112464423829	3
3	25	2.112464423829	4
3	25	2.112464423829	5
3	47	4.002300504418	6
3	47	4.002300504418	7
3	47	4.002300504418	8
3	61	5.893503660692	9
3	61	5.893503660692	10
3	61	5.893503660692	11
3	79	7.184095847682	12
3	79	7.184095847682	13
3	79	7.184095847682	14
3	98	8.952626934659	15
3	98	8.952626934659	16
3	98	8.952626934659	17
3	115	10.42739253213	18
3	115	10.42739253213	19
3	115	10.42739253213	20
3	134	12.027252492776	21
3	134	12.027252492776	22
3	134	12.027252492776	23
3	151	13.548999257793	24
3	151	13.548999257793	25
3	151	13.548999257793	26
3	169	15.442100911201	27
3	169	15.442100911201	28
3	169	15.442100911201	29
3	188	17.091634425995	30
3	188	17.091634425995	31
3	188	17.091634425995	32
3	209	18.899640069491	33
3	209	18.899640069491	34
3	209	18.899640069491	35
3	223	20.024418430943	36
3	223	20.024418430943	37
3	223	20.024418430943	38
3	241	21.581058620237	39
3	241	21.581058620237	40
3	241	21.581058620237	41
3	259	22.629381480883	42
3	259	22.629381480883	43
3	259	22.629381480883	44
3	278	24.619923316576	45
3	278	24.619923316576	46
3	278	24.619923316576	47
3	296	26.335618624492	48
3	296	26.335618624492	49
3	296	26.335618624492	50
3	313	28.228140284465	51
3	313	28.228140284465	52
3	313	28.228140284465	53
3	331	29.320823207885	54
3	331	29.320823207885	55
3	331	29.320823207885	56
3	349	31.289625881808	57
3	349	31.289625881808	58
3	349	31.289625881808	59
3	367	32.391068521492	60
3	367	32.391068521492	61
3	367	32.391068521492	62
3	385	33.480841609074	63
3	385	33.480841609074	64
3	385	33.480841609074	65
3	403	35.100130251961	66
3	403	35.100130251961	67
3	403	35.100130251961	68
3	421	36.864806559549	69
3	421	36.864806559549	70
3	421	36.864806559549	71
3	439	38.327939642195	72
3	439	38.327939642195	73
3	439	38.327939642195	74
3	457	39.796096787756	75
3	457	39.796096787756	76
3	457	39.796096787756	77
3	476	41.122159024558	78
3	476	41.122159024558	79
3	476	41.122159024558	80
3	493	43.068879865503	81
3	493	43.068879865503	82
3	493	43.068879865503	83
3	512	44.269208500931	84
3	512	44.269208500931	85
3	512	44.269208500931	86
3	534	45.540965245829	87
3	534	45.540965245829	88
3	534	45.540965245829	89
3	547	46.548891077424	90
3	547	46.548891077424	91
3	547	46.548891077424	92
3	566	48.111721246951	93
3	566	48.111721246951	94
3	566	48.111721246951	95
3	584	49.120683102892	96
3	584	49.120683102892	97
3	584	49.120683102892	98
3	601	50.206201328531	99
3	601	50.206201328531	100
3	601	50.206201328531	101
3	619	51.449770494904	102
3	619	51.449770494904	103
3	619	51.449770494904	104
3	637	52.90534517724	105
3	637	52.90534517724	106
3	637	52.90534517724	107
3	656	54.247865409944	108
3	656	54.247865409944	109
3	656	54.247865409944	110
3	673	56.042548059642	111
3	673	56.042548059642	112
3	673	56.042548059642	113
3	691	57.939540397709	114
3	691	57.939540397709	115
3	691	57.939540397709	116
3	710	59.564008612124	117
3	710	59.564008612124	118
3	710	59.564008612124	119
3	727	60.866372107601	120
3	727	60.866372107601	121
3	727	60.866372107601	122
3	745	62.845708725684	123
3	745	62.845708725684	124
3	745	62.845708725684	125
3	763	64.307407359224	126
3	763	64.307407359224	127
3	763	64.307407359224	128
3	781	65.791427231916	129
3	781	65.791427231916	130
3	781	65.791427231916	131
3	799	66.991607471744	132
3	799	66.991607471744	133
3	799	66.991607471744	134
3	817	68.479222565061	135
3	817	68.479222565061	136
3	817	68.479222565061	137
3	835	69.583820329474	138
3	835	69.583820329474	139
3	835	69.583820329474	140
3	853	71.298717323987	141
3	853	71.298717323987	142
3	853	71.298717323987	143
3	871	72.879923690799	144
3	871	72.879923690799	145
3	871	72.879923690799	146
3	890	74.576127272674	147
3	890	74.576127272674	148
3	890	74.576127272674	149
3	911	76.211532958573	150
3	911	76.211532958573	151
3	911	76.211532958573	152
3	925	78.015025986888	153
3	925	78.015025986888	154
3	925	78.015025986888	155
3	943	79.500485787156	156
3	943	79.500485787156	157
3	943	79.500485787156	158
3	961	80.988257515008	159
3	961	80.988257515008	160
3	961	80.988257515008	161
3	979	82.659052506602	162
3	979	82.659052506602	163
3	979	82.659052506602	164
3	1005	84.000075462055	165
3	1005	84.000075462055	166
3	1005	84.000075462055	167
3	1015	85.885399696029	168
3	1015	85.885399696029	169
3	1015	85.885399696029	170
3	1034	86.963570719733	171
3	1034	86.963570719733	172
3	1034	86.963570719733	173
3	1051	88.021173573452	174
3	1051	88.021173573452	175
3	1051	88.021173573452	176
3	1070	89.333371493573	177
3	1070	89.333371493573	178
3	1070	89.333371493573	179
3	1088	91.280735935365	180
3	1088	91.280735935365	181
3	1088	91.280735935365	182
3	1106	92.499306181488	183
3	1106	92.499306181488	184
3	1106	92.499306181488	185
3	1123	93.950448609379	186
3	1123	93.950448609379	187
3	1123	93.950448609379	188
3	1141	95.316692974486	189
3	1141	95.316692974486	190
3	1141	95.316692974486	191
3	1159	96.448911633683	192
3	1159	96.448911633683	193
3	1159	96.448911633683	194
3	1177	97.858141688409	195
3	1177	97.858141688409	196
3	1177	97.858141688409	197
3	1196	99.383146593073	198
3	1196	99.383146593073	199
3	1196	99.383146593073	200
3	1214	100.938153904269	201
3	1214	100.938153904269	202
3	1214	100.938153904269	203
3	1239	102.640294263099	204
3	1239	102.640294263099	205
3	1239	102.640294263099	206
3	1253	103.645067655329	207
3	1253	103.645067655329	208
3	1253	103.645067655329	209
3	1267	104.984618454288	210
3	1267	104.984618454288	211
3	1267	104.984618454288	212
3	1285	106.02495277131	213
3	1285	106.02495277131	214
3	1285	106.02495277131	215
3	1303	107.229971595102	216
3	1303	107.229971595102	217
3	1303	107.229971595102	218
3	1321	108.796281869178	219
3	1321	108.796281869178	220
3	1321	108.796281869178	221
3	1339	110.711232035973	222
3	1339	110.711232035973	223
3	1339	110.711232035973	224
3	1358	112.556337437855	225
3	1358	112.556337437855	226
3	1358	112.556337437855	227
3	1376	114.51296413542	228
3	1376	114.51296413542	229
3	1376	114.51296413542	230
3	1393	115.929485132144	231
3	1393	115.929485132144	232
3	1393	115.929485132144	233
3	1411	117.458146599339	234
3	1411	117.458146599339	235
3	1411	117.458146599339	236
3	1433	119.427997240156	237
3	1433	119.427997240156	238
3	1433	119.427997240156	239
3	1448	121.323036659536	240
3	1448	121.323036659536	241
3	1448	121.323036659536	242
3	1469	122.457696631269	243
3	1469	122.457696631269	244
3	1469	122.457696631269	245
3	1483	124.366450858257	246
3	1483	124.366450858257	247
3	1483	124.366450858257	248
3	1502	125.562227377383	249
3	1502	125.562227377383	250
3	1502	125.562227377383	251
3	1520	127.131316639428	252
3	1520	127.131316639428	253
3	1520	127.131316639428	254
3	1538	128.749837468468	255
3	1538	128.749837468468	256
3	1538	128.749837468468	257
3	1555	130.444610945331	258
3	1555	130.444610945331	259
3	1555	130.444610945331	260
3	1574	132.119634686158	261
3	1574	132.119634686158	262
3	1574	132.119634686158	263
3	1595	133.524978123648	264
3	1595	133.524978123648	265
3	1595	133.524978123648	266
3	1609	134.547754831078	267
3	1609	134.547754831078	268
3	1609	134.547754831078	269
3	1627	136.482025807131	270
3	1627	136.482025807131	271
3	1627	136.482025807131	272
3	1646	137.753485974387	273
3	1646	137.753485974387	274
3	1646	137.753485974387	275
3	1664	139.168902626341	276
3	1664	139.168902626341	277
3	1664	139.168902626341	278
3	1681	140.316247422589	279
3	1681	140.316247422589	280
3	1681	140.316247422589	281
3	1699	142.268860785018	282
3	1699	142.268860785018	283
3	1699	142.268860785018	284
3	1717	143.271883557624	285
3	1717	143.271883557624	286
3	1717	143.271883557624	287
3	1743	145.27629173691	288
3	1743	145.27629173691	289
3	1743	145.27629173691	290
3	1754	146.560830162408	291
3	1754	146.560830162408	292
3	1754	146.560830162408	293
3	1771	147.657456191698	294
3	1771	147.657456191698	295
3	1771	147.657456191698	296
3	1797	149.647998374784	297
3	1797	149.647998374784	298
3	1797	149.647998374784	299
3	1811	151.616889369658	300
3	1811	151.616889369658	301
3	1811	151.616889369658	302
3	1825	153.025808482649	303
3	1825	153.025808482649	304
3	1825	153.025808482649	305
3	1844	154.838046186065	306
3	1844	154.838046186065	307
3	1844	154.838046186065	308
3	1861	156.307204272139	309
3	1861	156.307204272139	310
3	1861	156.307204272139	311
3	1883	158.192816904453	312
3	1883	158.192816904453	313
3	1883	158.192816904453	314
3	1897	159.410839294258	315
3	1897	159.410839294258	316
3	1897	159.410839294258	317
3	1916	160.752066333827	318
3	1916	160.752066333827	319
3	1916	160.752066333827	320
3	1934	162.104258046839	321
3	1934	162.104258046839	322
3	1934	162.104258046839	323
3	1951	163.638181878093	324
3	1951	163.638181878093	325
3	1951	163.638181878093	326
3	1969	164.735428255375	327
3	1969	164.735428255375	328
3	1969	164.735428255375	329
3	1987	165.787870780372	330
3	1987	165.787870780372	331
3	1987	165.787870780372	332
3	2005	167.147187361179	333
3	2005	167.147187361179	334
3	2005	167.147187361179	335
3	2023	168.185372180181	336
3	2023	168.185372180181	337
3	2023	168.185372180181	338
3	2041	169.691443951553	339
3	2041	169.691443951553	340
3	2041	169.691443951553	341
3	2067	171.480689921029	342
3	2067	171.480689921029	343
3	2067	171.480689921029	344
3	2077	172.725280685881	345
3	2077	172.725280685881	346
3	2077	172.725280685881	347
3	2095	174.248282730771	348
3	2095	174.248282730771	349
3	2095	174.248282730771	350
3	2113	176.213271577178	351
3	2113	176.213271577178	352
3	2113	176.213271577178	353
3	2132	177.713909110171	354
3	2132	177.713909110171	355
3	2132	177.713909110171	356
3	2153	179.509598365983	357
3	2153	179.509598365983	358
3	2153	179.509598365983	359
3	2167	180.570497123165	360
3	2167	180.570497123165	361
3	2167	180.570497123165	362
3	2185	182.332186785716	363
3	2185	182.332186785716	364
3	2185	182.332186785716	365
3	2207	184.172261200607	366
3	2207	184.172261200607	367
3	2207	184.172261200607	368
3	2222	185.687101743606	369
3	2222	185.687101743606	370
3	2222	185.687101743606	371
3	2239	186.740539902815	372
3	2239	186.740539902815	373
3	2239	186.740539902815	374
3	2258	187.983800289154	375
3	2258	187.983800289154	376
3	2258	187.983800289154	377
3	2275	189.177401839806	378
3	2275	189.177401839806	379
3	2275	189.177401839806	380
3	2293	190.307567249621	381
3	2293	190.307567249621	382
3	2293	190.307567249621	383
3	2312	191.608431218663	384
3	2312	191.608431218663	385
3	2312	191.608431218663	386
3	2329	193.268616771121	387
3	2329	193.268616771121	388
3	2329	193.268616771121	389
3	2347	194.668337168837	390
3	2347	194.668337168837	391
3	2347	194.668337168837	392
3	2365	195.968041586298	393
3	2365	195.968041586298	394
3	2365	195.968041586298	395
3	2383	197.751053022509	396
3	2383	197.751053022509	397
3	2383	197.751053022509	398
3	2402	199.57871285627	399
3	2402	199.57871285627	400
3	2402	199.57871285627	401
3	2427	200.683944480045	402
3	2427	200.683944480045	403
3	2427	200.683944480045	404
3	2442	202.507160034483	405
3	2442	202.507160034483	406
3	2442	202.507160034483	407
3	2463	203.979729543391	408
3	2463	203.979729543391	409
3	2463	203.979729543391	410
3	2478	205.548154007344	411
3	2478	205.548154007344	412
3	2478	205.548154007344	413
3	2492	207.041319848524	414
3	2492	207.041319848524	415
3	2492	207.041319848524	416
3	2509	208.751373871079	417
3	2509	208.751373871079	418
3	2509	208.751373871079	419
3	2528	210.735188736039	420
3	2528	210.735188736039	421
3	2528	210.735188736039	422
3	2545	211.900916602614	423
3	2545	211.900916602614	424
3	2545	211.900916602614	425
3	2563	213.891749805863	426
3	2563	213.891749805863	427
3	2563	213.891749805863	428
3	2585	214.919357432243	429
3	2585	214.919357432243	430
3	2585	214.919357432243	431
3	2599	215.968135836019	432
3	2599	215.968135836019	433
3	2599	215.968135836019	434
3	2617	217.341538306976	435
3	2617	217.341538306976	436
3	2617	217.341538306976	437
3	2635	219.271541500708	438
3	2635	219.271541500708	439
3	2635	219.271541500708	440
3	2661	220.88904615158	441
3	2661	220.88904615158	442
3	2661	220.88904615158	443
3	2671	222.522234205881	444
3	2671	222.522234205881	445
3	2671	222.522234205881	446
3	2689	224.427687503486	447
3	2689	224.427687503486	448
3	2689	224.427687503486	449
3	2707	225.574309990988	450
3	2707	225.574309990988	451
3	2707	225.574309990988	452
3	2725	226.745921275231	453
3	2725	226.745921275231	454
3	2725	226.745921275231	455
3	2744	228.164883817633	456
3	2744	228.164883817633	457
3	2744	228.164883817633	458
3	2761	229.80944635112	459
3	2761	229.80944635112	460
3	2761	229.80944635112	461
3	2780	231.196018502063	462
3	2780	231.196018502063	463
3	2780	231.196018502063	464
3	2798	232.239944391721	465
3	2798	232.239944391721	466
3	2798	232.239944391721	467
3	2816	234.061912842912	468
3	2816	234.061912842912	469
3	2816	234.061912842912	470
3	2833	235.825779515181	471
3	2833	235.825779515181	472
3	2833	235.825779515181	473
3	2856	237.417721609323	474
3	2856	237.417721609323	475
3	2856	237.417721609323	476
3	2874	238.831150196604	477
3	2874	238.831150196604	478
3	2874	238.831150196604	479
4	15	0.149847200394	0
4	15	0.149847200394	1
4	15	0.149847200394	2
4	29	2.130109006354	3
4	29	2.130109006354	4
4	29	2.130109006354	5
4	48	4.002464788999	6
4	48	4.002464788999	7
4	48	4.002464788999	8
4	69	5.908810337153	9
4	69	5.908810337153	10
4	69	5.908810337153	11
4	83	7.197641124456	12
4	83	7.197641124456	13
4	83	7.197641124456	14
4	105	8.971984284051	15
4	105	8.971984284051	16
4	105	8.971984284051	17
4	120	10.440019375766	18
4	120	10.440019375766	19
4	120	10.440019375766	20
4	141	12.042418247842	21
4	141	12.042418247842	22
4	141	12.042418247842	23
4	155	13.567462440979	24
4	155	13.567462440979	25
4	155	13.567462440979	26
4	177	15.473415995519	27
4	177	15.473415995519	28
4	177	15.473415995519	29
4	195	17.121612132418	30
4	195	17.121612132418	31
4	195	17.121612132418	32
4	210	18.902114538689	33
4	210	18.902114538689	34
4	210	18.902114538689	35
4	227	20.040660455519	36
4	227	20.040660455519	37
4	227	20.040660455519	38
4	249	21.598188247992	39
4	249	21.598188247992	40
4	249	21.598188247992	41
4	264	22.644793067046	42
4	264	22.644793067046	43
4	264	22.644793067046	44
4	282	24.625221505601	45
4	282	24.625221505601	46
4	282	24.625221505601	47
4	300	26.342086611318	48
4	300	26.342086611318	49
4	300	26.342086611318	50
4	318	28.238653407774	51
4	318	28.238653407774	52
4	318	28.238653407774	53
4	339	29.347636648932	54
4	339	29.347636648932	55
4	339	29.347636648932	56
4	357	31.305827684246	57
4	357	31.305827684246	58
4	357	31.305827684246	59
4	372	32.402614764491	60
4	372	32.402614764491	61
4	372	32.402614764491	62
4	393	33.492649709425	63
4	393	33.492649709425	64
4	393	33.492649709425	65
4	411	35.13621465988	66
4	411	35.13621465988	67
4	411	35.13621465988	68
4	425	36.879185056803	69
4	425	36.879185056803	70
4	425	36.879185056803	71
4	447	38.344932822201	72
4	447	38.344932822201	73
4	447	38.344932822201	74
4	465	39.811717413735	75
4	465	39.811717413735	76
4	465	39.811717413735	77
4	483	41.132630602808	78
4	483	41.132630602808	79
4	483	41.132630602808	80
4	501	43.083978381342	81
4	501	43.083978381342	82
4	501	43.083978381342	83
4	516	44.273469262408	84
4	516	44.273469262408	85
4	516	44.273469262408	86
4	533	45.540869328753	87
4	533	45.540869328753	88
4	533	45.540869328753	89
4	551	46.570433001049	90
4	551	46.570433001049	91
4	551	46.570433001049	92
4	573	48.13330597446	93
4	573	48.13330597446	94
4	573	48.13330597446	95
4	588	49.128556994452	96
4	588	49.128556994452	97
4	588	49.128556994452	98
4	609	50.226999191574	99
4	609	50.226999191574	100
4	609	50.226999191574	101
4	623	51.46606443424	102
4	623	51.46606443424	103
4	623	51.46606443424	104
4	641	52.917059938595	105
4	641	52.917059938595	106
4	641	52.917059938595	107
4	660	54.257555994857	108
4	660	54.257555994857	109
4	660	54.257555994857	110
4	677	56.056888577734	111
4	677	56.056888577734	112
4	677	56.056888577734	113
4	699	57.95475428153	114
4	699	57.95475428153	115
4	699	57.95475428153	116
4	717	59.574147931715	117
4	717	59.574147931715	118
4	717	59.574147931715	119
4	731	60.878641839397	120
4	731	60.878641839397	121
4	731	60.878641839397	122
4	750	62.859479638364	123
4	750	62.859479638364	124
4	750	62.859479638364	125
4	767	64.320634869859	126
4	767	64.320634869859	127
4	767	64.320634869859	128
4	786	65.80814123168	129
4	786	65.80814123168	130
4	786	65.80814123168	131
4	803	67.004588876029	132
4	803	67.004588876029	133
4	803	67.004588876029	134
4	825	68.506151168185	135
4	825	68.506151168185	136
4	825	68.506151168185	137
4	839	69.5939337737	138
4	839	69.5939337737	139
4	839	69.5939337737	140
4	858	71.313613436918	141
4	858	71.313613436918	142
4	858	71.313613436918	143
4	876	72.900527893254	144
4	876	72.900527893254	145
4	876	72.900527893254	146
4	897	74.604192854731	147
4	897	74.604192854731	148
4	897	74.604192854731	149
4	912	76.211944733544	150
4	912	76.211944733544	151
4	912	76.211944733544	152
4	933	78.033834707793	153
4	933	78.033834707793	154
4	933	78.033834707793	155
4	951	79.513081331834	156
4	951	79.513081331834	157
4	951	79.513081331834	158
4	966	81.005498047112	159
4	966	81.005498047112	160
4	966	81.005498047112	161
4	987	82.676450619368	162
4	987	82.676450619368	163
4	987	82.676450619368	164
4	1001	83.98995751369	165
4	1001	83.98995751369	166
4	1001	83.98995751369	167
4	1023	85.916541828772	168
4	1023	85.916541828772	169
4	1023	85.916541828772	170
4	1041	87.025473379601	171
4	1041	87.025473379601	172
4	1041	87.025473379601	173
4	1059	88.031882424275	174
4	1059	88.031882424275	175
4	1059	88.031882424275	176
4	1074	89.342478218146	177
4	1074	89.342478218146	178
4	1074	89.342478218146	179
4	1095	91.300302784893	180
4	1095	91.300302784893	181
4	1095	91.300302784893	182
4	1110	92.505226152796	183
4	1110	92.505226152796	184
4	1110	92.505226152796	185
4	1131	93.9973339284	186
4	1131	93.9973339284	187
4	1131	93.9973339284	188
4	1146	95.336437168225	189
4	1146	95.336437168225	190
4	1146	95.336437168225	191
4	1163	96.461747478281	192
4	1163	96.461747478281	193
4	1163	96.461747478281	194
4	1185	97.905641147904	195
4	1185	97.905641147904	196
4	1185	97.905641147904	197
4	1203	99.399908963229	198
4	1203	99.399908963229	199
4	1203	99.399908963229	200
4	1221	100.961810762169	201
4	1221	100.961810762169	202
4	1221	100.961810762169	203
4	1235	102.620362582609	204
4	1235	102.620362582609	205
4	1235	102.620362582609	206
4	1257	103.657217641701	207
4	1257	103.657217641701	208
4	1257	103.657217641701	209
4	1275	105.010271715388	210
4	1275	105.010271715388	211
4	1275	105.010271715388	212
4	1293	106.043543576196	213
4	1293	106.043543576196	214
4	1293	106.043543576196	215
4	1311	107.25529751304	216
4	1311	107.25529751304	217
4	1311	107.25529751304	218
4	1326	108.809309966616	219
4	1326	108.809309966616	220
4	1326	108.809309966616	221
4	1344	110.733425005523	222
4	1344	110.733425005523	223
4	1344	110.733425005523	224
4	1362	112.56595416085	225
4	1362	112.56595416085	226
4	1362	112.56595416085	227
4	1380	114.518635950951	228
4	1380	114.518635950951	229
4	1380	114.518635950951	230
4	1397	115.941622357244	231
4	1397	115.941622357244	232
4	1397	115.941622357244	233
4	1416	117.477274081035	234
4	1416	117.477274081035	235
4	1416	117.477274081035	236
4	1434	119.429054449018	237
4	1434	119.429054449018	238
4	1434	119.429054449018	239
4	1455	121.344013806804	240
4	1455	121.344013806804	241
4	1455	121.344013806804	242
4	1470	122.459531532482	243
4	1470	122.459531532482	244
4	1470	122.459531532482	245
4	1491	124.39610945608	246
4	1491	124.39610945608	247
4	1491	124.39610945608	248
4	1509	125.589802514871	249
4	1509	125.589802514871	250
4	1509	125.589802514871	251
4	1524	127.139855795897	252
4	1524	127.139855795897	253
4	1524	127.139855795897	254
4	1545	128.762984167484	255
4	1545	128.762984167484	256
4	1545	128.762984167484	257
4	1563	130.473485764877	258
4	1563	130.473485764877	259
4	1563	130.473485764877	260
4	1581	132.135560007251	261
4	1581	132.135560007251	262
4	1581	132.135560007251	263
4	1596	133.528653479565	264
4	1596	133.528653479565	265
4	1596	133.528653479565	266
4	1613	134.563730138256	267
4	1613	134.563730138256	268
4	1613	134.563730138256	269
4	1635	136.515755011975	270
4	1635	136.515755011975	271
4	1635	136.515755011975	272
4	1650	137.758927243558	273
4	1650	137.758927243558	274
4	1650	137.758927243558	275
4	1668	139.177534146574	276
4	1668	139.177534146574	277
4	1668	139.177534146574	278
4	1689	140.344987732982	279
4	1689	140.344987732982	280
4	1689	140.344987732982	281
4	1707	142.295666593266	282
4	1707	142.295666593266	283
4	1707	142.295666593266	284
4	1722	143.29012355074	285
4	1722	143.29012355074	286
4	1722	143.29012355074	287
4	1739	145.261642240924	288
4	1739	145.261642240924	289
4	1739	145.261642240924	290
4	1761	146.579150435441	291
4	1761	146.579150435441	292
4	1761	146.579150435441	293
4	1779	147.668372390997	294
4	1779	147.668372390997	295
4	1779	147.668372390997	296
4	1793	149.631711468079	297
4	1793	149.631711468079	298
4	1793	149.631711468079	299
4	1815	151.657997047045	300
4	1815	151.657997047045	301
4	1815	151.657997047045	302
4	1829	153.046168503976	303
4	1829	153.046168503976	304
4	1829	153.046168503976	305
4	1851	154.851451429397	306
4	1851	154.851451429397	307
4	1851	154.851451429397	308
4	1869	156.339905412506	309
4	1869	156.339905412506	310
4	1869	156.339905412506	311
4	1884	158.194452163968	312
4	1884	158.194452163968	313
4	1884	158.194452163968	314
4	1905	159.449709682038	315
4	1905	159.449709682038	316
4	1905	159.449709682038	317
4	1923	160.81108432282	318
4	1923	160.81108432282	319
4	1923	160.81108432282	320
4	1941	162.118853333822	321
4	1941	162.118853333822	322
4	1941	162.118853333822	323
4	1959	163.652008123273	324
4	1959	163.652008123273	325
4	1959	163.652008123273	326
4	1977	164.760790621198	327
4	1977	164.760790621198	328
4	1977	164.760790621198	329
4	1995	165.811847239379	330
4	1995	165.811847239379	331
4	1995	165.811847239379	332
4	2013	167.165328321414	333
4	2013	167.165328321414	334
4	2013	167.165328321414	335
4	2028	168.199720772231	336
4	2028	168.199720772231	337
4	2028	168.199720772231	338
4	2049	169.711050531126	339
4	2049	169.711050531126	340
4	2049	169.711050531126	341
4	2063	171.461547927173	342
4	2063	171.461547927173	343
4	2063	171.461547927173	344
4	2085	172.739843029072	345
4	2085	172.739843029072	346
4	2085	172.739843029072	347
4	2103	174.285035256272	348
4	2103	174.285035256272	349
4	2103	174.285035256272	350
4	2121	176.229635768321	351
4	2121	176.229635768321	352
4	2121	176.229635768321	353
4	2139	177.739796503826	354
4	2139	177.739796503826	355
4	2139	177.739796503826	356
4	2154	179.51240927141	357
4	2154	179.51240927141	358
4	2154	179.51240927141	359
4	2175	180.593406913996	360
4	2175	180.593406913996	361
4	2175	180.593406913996	362
4	2193	182.351137849458	363
4	2193	182.351137849458	364
4	2193	182.351137849458	365
4	2211	184.193316458285	366
4	2211	184.193316458285	367
4	2211	184.193316458285	368
4	2229	185.700346954781	369
4	2229	185.700346954781	370
4	2229	185.700346954781	371
4	2247	186.7772846945	372
4	2247	186.7772846945	373
4	2247	186.7772846945	374
4	2262	187.992649862497	375
4	2262	187.992649862497	376
4	2262	187.992649862497	377
4	2283	189.191094995459	378
4	2283	189.191094995459	379
4	2283	189.191094995459	380
4	2301	190.319870471194	381
4	2301	190.319870471194	382
4	2301	190.319870471194	383
4	2319	191.626842056969	384
4	2319	191.626842056969	385
4	2319	191.626842056969	386
4	2334	193.289937018287	387
4	2334	193.289937018287	388
4	2334	193.289937018287	389
4	2355	194.694476674456	390
4	2355	194.694476674456	391
4	2355	194.694476674456	392
4	2370	195.97856393526	393
4	2370	195.97856393526	394
4	2370	195.97856393526	395
4	2388	197.774950511057	396
4	2388	197.774950511057	397
4	2388	197.774950511057	398
4	2409	199.590270761217	399
4	2409	199.590270761217	400
4	2409	199.590270761217	401
4	2423	200.652834299496	402
4	2423	200.652834299496	403
4	2423	200.652834299496	404
4	2441	202.49838113565	405
4	2441	202.49838113565	406
4	2441	202.49838113565	407
4	2459	203.967873665047	408
4	2459	203.967873665047	409
4	2459	203.967873665047	410
4	2477	205.544895899843	411
4	2477	205.544895899843	412
4	2477	205.544895899843	413
4	2499	207.052476991458	414
4	2499	207.052476991458	415
4	2499	207.052476991458	416
4	2513	208.766446054741	417
4	2513	208.766446054741	418
4	2513	208.766446054741	419
4	2535	210.749213469596	420
4	2535	210.749213469596	421
4	2535	210.749213469596	422
4	2550	211.913140682456	423
4	2550	211.913140682456	424
4	2550	211.913140682456	425
4	2571	213.923597209771	426
4	2571	213.923597209771	427
4	2571	213.923597209771	428
4	2586	214.928505787225	429
4	2586	214.928505787225	430
4	2586	214.928505787225	431
4	2604	215.981363228773	432
4	2604	215.981363228773	433
4	2604	215.981363228773	434
4	2622	217.352324659649	435
4	2622	217.352324659649	436
4	2622	217.352324659649	437
4	2643	219.289586994103	438
4	2643	219.289586994103	439
4	2643	219.289586994103	440
4	2657	220.864204383106	441
4	2657	220.864204383106	442
4	2657	220.864204383106	443
4	2679	222.542271502603	444
4	2679	222.542271502603	445
4	2679	222.542271502603	446
4	2694	224.44931964652	447
4	2694	224.44931964652	448
4	2694	224.44931964652	449
4	2712	225.585475068725	450
4	2712	225.585475068725	451
4	2712	225.585475068725	452
4	2733	226.759685006504	453
4	2733	226.759685006504	454
4	2733	226.759685006504	455
4	2748	228.174259738041	456
4	2748	228.174259738041	457
4	2748	228.174259738041	458
4	2769	229.820136623973	459
4	2769	229.820136623973	460
4	2769	229.820136623973	461
4	2787	231.215082232715	462
4	2787	231.215082232715	463
4	2787	231.215082232715	464
4	2802	232.246148679012	465
4	2802	232.246148679012	466
4	2802	232.246148679012	467
4	2823	234.076259607839	468
4	2823	234.076259607839	469
4	2823	234.076259607839	470
4	2841	235.842711724812	471
4	2841	235.842711724812	472
4	2841	235.842711724812	473
4	2855	237.410472995954	474
4	2855	237.410472995954	475
4	2855	237.410472995954	476
4	2873	238.824912576245	477
4	2873	238.824912576245	478
4	2873	238.824912576245	479
5	18	0.159847200394	0
5	33	2.140109006354	1
5	54	4.012464788999	2
5	72	5.918810337153	3
5	86	7.207641124456	4
5	108	8.981984284051	5
5	126	10.450019375766	6
5	144	12.052418247842	7
5	159	13.577462440979	8
5	180	15.483415995519	9
5	198	17.131612132418	10
5	216	18.912114538689	11
5	231	20.050660455519	12
5	252	21.608188247992	13
5	270	22.654793067046	14
5	288	24.635221505601	15
5	306	26.352086611318	16
5	324	28.248653407774	17
5	342	29.357636648932	18
5	360	31.315827684246	19
5	378	32.412614764491	20
5	396	33.502649709425	21
5	414	35.14621465988	22
5	428	36.889185056803	23
5	450	38.354932822201	24
5	468	39.821717413735	25
5	486	41.142630602808	26
5	504	43.093978381342	27
5	522	44.283469262408	28
5	537	45.550869328753	29
5	555	46.580433001049	30
5	576	48.14330597446	31
5	594	49.138556994452	32
5	612	50.236999191574	33
5	627	51.47606443424	34
5	645	52.927059938595	35
5	666	54.267555994857	36
5	681	56.066888577734	37
5	702	57.96475428153	38
5	720	59.584147931715	39
5	734	60.888641839397	40
5	756	62.869479638364	41
5	770	64.330634869859	42
5	792	65.81814123168	43
5	806	67.014588876029	44
5	828	68.516151168185	45
5	843	69.6039337737	46
5	864	71.323613436918	47
5	882	72.910527893254	48
5	900	74.614192854731	49
5	918	76.221944733544	50
5	936	78.043834707793	51
5	954	79.523081331834	52
5	972	81.015498047112	53
5	990	82.686450619368	54
5	1004	83.99995751369	55
5	1026	85.926541828772	56
5	1044	87.035473379601	57
5	1062	88.041882424275	58
5	1080	89.352478218146	59
5	1098	91.310302784893	60
5	1116	92.515226152796	61
5	1134	94.0073339284	62
5	1152	95.346437168225	63
5	1167	96.471747478281	64
5	1188	97.915641147904	65
5	1206	99.409908963229	66
5	1224	100.971810762169	67
5	1238	102.630362582609	68
5	1260	103.667217641701	69
5	1278	105.020271715388	70
5	1296	106.053543576196	71
5	1314	107.26529751304	72
5	1332	108.819309966616	73
5	1350	110.743425005523	74
5	1368	112.57595416085	75
5	1386	114.528635950951	76
5	1401	115.951622357244	77
5	1422	117.487274081035	78
5	1440	119.439054449018	79
5	1458	121.354013806804	80
5	1476	122.469531532482	81
5	1494	124.40610945608	82
5	1512	125.599802514871	83
5	1530	127.149855795897	84
5	1548	128.772984167484	85
5	1566	130.483485764877	86
5	1584	132.145560007251	87
5	1602	133.538653479565	88
5	1617	134.573730138256	89
5	1638	136.525755011975	90
5	1656	137.768927243558	91
5	1674	139.187534146574	92
5	1692	140.354987732982	93
5	1710	142.305666593266	94
5	1728	143.30012355074	95
5	1742	145.271642240924	96
5	1764	146.589150435441	97
5	1782	147.678372390997	98
5	1796	149.641711468079	99
5	1818	151.667997047045	100
5	1833	153.056168503976	101
5	1854	154.861451429397	102
5	1872	156.349905412506	103
5	1890	158.204452163968	104
5	1908	159.459709682038	105
5	1926	160.82108432282	106
5	1944	162.128853333822	107
5	1962	163.662008123273	108
5	1980	164.770790621198	109
5	1998	165.821847239379	110
5	2016	167.175328321414	111
5	2034	168.209720772231	112
5	2052	169.721050531126	113
5	2066	171.471547927173	114
5	2088	172.749843029072	115
5	2106	174.295035256272	116
5	2124	176.239635768321	117
5	2142	177.749796503826	118
5	2160	179.52240927141	119
5	2178	180.603406913996	120
5	2196	182.361137849458	121
5	2214	184.203316458285	122
5	2232	185.710346954781	123
5	2250	186.7872846945	124
5	2268	188.002649862497	125
5	2286	189.201094995459	126
5	2304	190.329870471194	127
5	2322	191.636842056969	128
5	2340	193.299937018287	129
5	2358	194.704476674456	130
5	2376	195.98856393526	131
5	2394	197.784950511057	132
5	2412	199.600270761217	133
5	2426	200.662834299496	134
5	2445	202.50838113565	135
5	2462	203.977873665047	136
5	2481	205.554895899843	137
5	2502	207.062476991458	138
5	2517	208.776446054741	139
5	2538	210.759213469596	140
5	2556	211.923140682456	141
5	2574	213.933597209771	142
5	2592	214.938505787225	143
5	2610	215.991363228773	144
5	2628	217.362324659649	145
5	2646	219.299586994103	146
5	2660	220.874204383106	147
5	2682	222.552271502603	148
5	2700	224.45931964652	149
5	2718	225.595475068725	150
5	2736	226.769685006504	151
5	2754	228.184259738041	152
5	2772	229.830136623973	153
5	2790	231.225082232715	154
5	2808	232.256148679012	155
5	2826	234.086259607839	156
5	2844	235.852711724812	157
5	2859	237.420472995954	158
5	2877	238.834912576245	159

