version 2
run General-2-20231008-06:14:46-15473
attr configname General
attr datetime 20231008-06:14:46
attr experiment General
attr inifile omnetpp.ini
attr iterationvars ""
attr iterationvarsf ""
attr measurement ""
attr network Network1
attr processid 15473
attr repetition 2
attr replication #2
attr resultdir results
attr runnumber 2
attr seedset 2
param Network1.node[*].transmissionTime "uniform(1s, 2s)"
param Network1.node[*].delayTime "uniform(0.01s, 0.2s)"
param Network1.node[*].processingTime exponential(0.01s)
param Network1.node[*].lossProbability 0.0
param Reliability.node[*].transmissionTime "uniform(1s, 2s)"
param Reliability.node[*].delayTime "uniform(0.01s, 0.2s)"
param Reliability.node[*].processingTime exponential(0.01s)
param Reliability.node[*].lossProbability 0.0

vector 0 Network1.node[0] txVector ETV
vector 1 Network1.node[1] txVector ETV
vector 2 Network1.node[3] txVector ETV
vector 3 Network1.node[2] txVector ETV
vector 4 Network1.node[4] txVector ETV
vector 5 Network1.node[5] rxVector ETV
0	1	0.092839031499	0
0	19	1.277921112972	1
0	37	2.910658843602	2
0	55	4.087643467375	3
0	73	5.855134643867	4
0	91	7.845986640799	5
0	109	9.655161925844	6
0	127	10.876160080331	7
0	145	12.836473810273	8
0	163	14.410116308621	9
0	181	15.773442199939	10
0	199	17.735901775557	11
0	217	19.704192347845	12
0	235	21.502412936438	13
0	253	23.34024348438	14
0	271	24.340367068557	15
0	289	26.210075689733	16
0	307	27.261563879924	17
0	325	29.172219396822	18
0	343	30.605965312125	19
0	361	31.929648514625	20
0	379	33.609675768784	21
0	397	35.437129119199	22
0	415	36.878517745083	23
0	433	38.661150763064	24
0	451	40.522178440375	25
0	469	42.388358682181	26
0	487	43.538845146793	27
0	505	45.283883407266	28
0	523	47.009513485964	29
0	541	48.861185759792	30
0	559	50.024525029605	31
0	577	51.995072782758	32
0	595	53.048562957227	33
0	613	54.191558186916	34
0	631	55.522215090712	35
0	649	56.989551768658	36
0	667	58.854847111759	37
0	685	60.650562385815	38
0	703	62.465528651858	39
0	721	64.117022491778	40
0	739	65.748289888977	41
0	757	66.979967386248	42
0	775	68.559840861494	43
0	793	69.859362130072	44
0	811	71.244271073276	45
0	829	73.147660737177	46
0	847	74.236310047814	47
0	865	75.510823423061	48
0	883	77.483493787022	49
0	901	78.861216774927	50
0	919	80.740451377136	51
0	937	82.342996171461	52
0	955	83.988976703276	53
0	973	85.918325879862	54
0	991	87.427860379004	55
0	1009	88.891097760544	56
0	1027	90.555060170841	57
0	1045	91.944623122708	58
0	1063	93.223950376286	59
0	1081	94.500137683022	60
0	1099	95.979083496164	61
0	1117	97.312980477716	62
0	1135	98.582192666381	63
0	1153	99.763749596914	64
0	1171	101.226133753331	65
0	1189	102.835044595664	66
0	1207	104.802056586388	67
0	1225	106.379459957377	68
0	1243	108.002053801454	69
0	1261	109.62609503257	70
0	1279	110.872272457712	71
0	1297	112.776025841728	72
0	1315	113.792594612127	73
0	1333	114.802314008603	74
0	1351	116.218542743258	75
0	1369	118.117372847644	76
0	1387	119.975826224561	77
0	1405	121.476024212797	78
0	1423	123.061192000766	79
0	1441	124.157327380513	80
0	1459	125.356381857551	81
0	1477	127.281947554571	82
0	1495	128.711654980683	83
0	1513	130.414632249407	84
0	1531	132.092266100009	85
0	1549	133.159617627754	86
0	1567	134.909361006242	87
0	1585	136.463763911293	88
0	1603	137.654604350698	89
0	1621	139.118807589651	90
0	1639	140.840326389546	91
0	1657	141.960642138511	92
0	1675	143.949417548269	93
0	1693	145.736515920857	94
0	1711	147.160433006022	95
0	1729	148.48315915071	96
0	1747	150.315796447001	97
0	1765	151.626264404287	98
0	1783	153.112200288582	99
0	1801	154.887375530801	100
0	1819	156.813885228723	101
0	1837	158.459669179298	102
0	1855	160.218649078874	103
0	1873	161.441356031705	104
0	1891	162.895286533298	105
0	1909	164.742460787311	106
0	1927	165.945546746502	107
0	1945	167.124828053654	108
0	1963	168.738341453268	109
0	1981	170.254122359461	110
0	1999	171.641898444171	111
0	2017	173.425714728671	112
0	2035	174.766271492948	113
0	2053	176.458599876628	114
0	2071	178.411034176375	115
0	2089	179.860084289235	116
0	2107	181.717387227357	117
0	2125	183.404148965624	118
0	2143	185.34130283633	119
0	2161	187.035398602036	120
0	2179	188.626970605708	121
0	2197	189.673805823799	122
0	2215	191.414460860675	123
0	2233	192.80021256862	124
0	2251	193.805967355629	125
0	2269	195.590892718656	126
0	2287	197.466620449692	127
0	2305	198.542631774226	128
0	2323	199.82595547104	129
0	2341	201.754353045735	130
0	2359	203.679278550686	131
0	2377	205.546983163122	132
0	2395	207.448992093343	133
0	2413	209.233968043484	134
0	2431	211.064213601424	135
0	2449	212.189250764454	136
0	2467	213.998549645551	137
0	2485	215.895459689217	138
0	2503	217.255599258019	139
0	2521	218.297031354642	140
0	2539	220.186344364442	141
0	2557	221.768788500706	142
0	2575	223.062651785108	143
0	2593	224.622423421143	144
0	2611	226.021859063318	145
0	2629	227.971457011316	146
0	2647	229.219044166401	147
0	2665	230.807009335857	148
0	2683	231.824175036064	149
0	2701	233.221067352238	150
0	2719	234.590274460166	151
0	2737	236.1050723314	152
0	2755	237.706953811244	153
0	2773	239.377581107215	154
1	3	0.129654214104	0
1	3	0.129654214104	1
1	3	0.129654214104	2
1	21	1.304971063913	3
1	21	1.304971063913	4
1	21	1.304971063913	5
1	39	2.955602636405	6
1	39	2.955602636405	7
1	39	2.955602636405	8
1	57	4.10625458401	9
1	57	4.10625458401	10
1	57	4.10625458401	11
1	75	5.866407124741	12
1	75	5.866407124741	13
1	75	5.866407124741	14
1	93	7.860351174633	15
1	93	7.860351174633	16
1	93	7.860351174633	17
1	111	9.678891025692	18
1	111	9.678891025692	19
1	111	9.678891025692	20
1	129	10.891711731622	21
1	129	10.891711731622	22
1	129	10.891711731622	23
1	147	12.851481462459	24
1	147	12.851481462459	25
1	147	12.851481462459	26
1	165	14.427112125338	27
1	165	14.427112125338	28
1	165	14.427112125338	29
1	183	15.793855475166	30
1	183	15.793855475166	31
1	183	15.793855475166	32
1	201	17.754457343486	33
1	201	17.754457343486	34
1	201	17.754457343486	35
1	219	19.722278814254	36
1	219	19.722278814254	37
1	219	19.722278814254	38
1	237	21.520101426465	39
1	237	21.520101426465	40
1	237	21.520101426465	41
1	255	23.351218469029	42
1	255	23.351218469029	43
1	255	23.351218469029	44
1	273	24.353588946133	45
1	273	24.353588946133	46
1	273	24.353588946133	47
1	291	26.229838016947	48
1	291	26.229838016947	49
1	291	26.229838016947	50
1	309	27.288682206866	51
1	309	27.288682206866	52
1	309	27.288682206866	53
1	327	29.191066692523	54
1	327	29.191066692523	55
1	327	29.191066692523	56
1	345	30.629258835611	57
1	345	30.629258835611	58
1	345	30.629258835611	59
1	363	31.950953871527	60
1	363	31.950953871527	61
1	363	31.950953871527	62
1	381	33.62743448948	63
1	381	33.62743448948	64
1	381	33.62743448948	65
1	399	35.466681437679	66
1	399	35.466681437679	67
1	399	35.466681437679	68
1	417	36.899523702637	69
1	417	36.899523702637	70
1	417	36.899523702637	71
1	435	38.674447755185	72
1	435	38.674447755185	73
1	435	38.674447755185	74
1	453	40.568674784005	75
1	453	40.568674784005	76
1	453	40.568674784005	77
1	471	42.400275649733	78
1	471	42.400275649733	79
1	471	42.400275649733	80
1	489	43.552995200581	81
1	489	43.552995200581	82
1	489	43.552995200581	83
1	507	45.298842354761	84
1	507	45.298842354761	85
1	507	45.298842354761	86
1	525	47.023832452712	87
1	525	47.023832452712	88
1	525	47.023832452712	89
1	543	48.884207606142	90
1	543	48.884207606142	91
1	543	48.884207606142	92
1	561	50.042126127306	93
1	561	50.042126127306	94
1	561	50.042126127306	95
1	579	52.010731464957	96
1	579	52.010731464957	97
1	579	52.010731464957	98
1	597	53.05997029243	99
1	597	53.05997029243	100
1	597	53.05997029243	101
1	615	54.203117949112	102
1	615	54.203117949112	103
1	615	54.203117949112	104
1	633	55.564330616614	105
1	633	55.564330616614	106
1	633	55.564330616614	107
1	651	57.013237838339	108
1	651	57.013237838339	109
1	651	57.013237838339	110
1	669	58.866786564395	111
1	669	58.866786564395	112
1	669	58.866786564395	113
1	687	60.678197323012	114
1	687	60.678197323012	115
1	687	60.678197323012	116
1	705	62.476581867477	117
1	705	62.476581867477	118
1	705	62.476581867477	119
1	723	64.133546005905	120
1	723	64.133546005905	121
1	723	64.133546005905	122
1	741	65.759344806136	123
1	741	65.759344806136	124
1	741	65.759344806136	125
1	759	66.995022551719	126
1	759	66.995022551719	127
1	759	66.995022551719	128
1	777	68.577492514684	129
1	777	68.577492514684	130
1	777	68.577492514684	131
1	795	69.887754578328	132
1	795	69.887754578328	133
1	795	69.887754578328	134
1	813	71.256592959763	135
1	813	71.256592959763	136
1	813	71.256592959763	137
1	831	73.160840854939	138
1	831	73.160840854939	139
1	831	73.160840854939	140
1	849	74.250490181612	141
1	849	74.250490181612	142
1	849	74.250490181612	143
1	867	75.523111798247	144
1	867	75.523111798247	145
1	867	75.523111798247	146
1	885	77.500891104016	147
1	885	77.500891104016	148
1	885	77.500891104016	149
1	903	78.887820596471	150
1	903	78.887820596471	151
1	903	78.887820596471	152
1	921	80.761110901427	153
1	921	80.761110901427	154
1	921	80.761110901427	155
1	939	82.357690771783	156
1	939	82.357690771783	157
1	939	82.357690771783	158
1	957	83.999219063568	159
1	957	83.999219063568	160
1	957	83.999219063568	161
1	975	85.931213157472	162
1	975	85.931213157472	163
1	975	85.931213157472	164
1	993	87.444872615017	165
1	993	87.444872615017	166
1	993	87.444872615017	167
1	1011	88.916506288786	168
1	1011	88.916506288786	169
1	1011	88.916506288786	170
1	1029	90.5729382976	171
1	1029	90.5729382976	172
1	1029	90.5729382976	173
1	1047	91.955997699697	174
1	1047	91.955997699697	175
1	1047	91.955997699697	176
1	1065	93.234681357351	177
1	1065	93.234681357351	178
1	1065	93.234681357351	179
1	1083	94.511425575275	180
1	1083	94.511425575275	181
1	1083	94.511425575275	182
1	1101	95.991768001029	183
1	1101	95.991768001029	184
1	1101	95.991768001029	185
1	1119	97.327452077907	186
1	1119	97.327452077907	187
1	1119	97.327452077907	188
1	1137	98.598921090707	189
1	1137	98.598921090707	190
1	1137	98.598921090707	191
1	1155	99.775240149775	192
1	1155	99.775240149775	193
1	1155	99.775240149775	194
1	1173	101.247243220517	195
1	1173	101.247243220517	196
1	1173	101.247243220517	197
1	1191	102.872611607655	198
1	1191	102.872611607655	199
1	1191	102.872611607655	200
1	1209	104.815966634229	201
1	1209	104.815966634229	202
1	1209	104.815966634229	203
1	1227	106.39328913383	204
1	1227	106.39328913383	205
1	1227	106.39328913383	206
1	1245	108.037619458938	207
1	1245	108.037619458938	208
1	1245	108.037619458938	209
1	1263	109.637259608949	210
1	1263	109.637259608949	211
1	1263	109.637259608949	212
1	1281	110.912775552334	213
1	1281	110.912775552334	214
1	1281	110.912775552334	215
1	1299	112.788631026162	216
1	1299	112.788631026162	217
1	1299	112.788631026162	218
1	1317	113.802615255834	219
1	1317	113.802615255834	220
1	1317	113.802615255834	221
1	1335	114.834156187699	222
1	1335	114.834156187699	223
1	1335	114.834156187699	224
1	1353	116.229160157311	225
1	1353	116.229160157311	226
1	1353	116.229160157311	227
1	1371	118.140052581942	228
1	1371	118.140052581942	229
1	1371	118.140052581942	230
1	1389	119.986228880667	231
1	1389	119.986228880667	232
1	1389	119.986228880667	233
1	1407	121.49976382998	234
1	1407	121.49976382998	235
1	1407	121.49976382998	236
1	1425	123.096101006334	237
1	1425	123.096101006334	238
1	1425	123.096101006334	239
1	1443	124.176988849058	240
1	1443	124.176988849058	241
1	1443	124.176988849058	242
1	1461	125.378173747529	243
1	1461	125.378173747529	244
1	1461	125.378173747529	245
1	1479	127.296191518059	246
1	1479	127.296191518059	247
1	1479	127.296191518059	248
1	1497	128.724049727364	249
1	1497	128.724049727364	250
1	1497	128.724049727364	251
1	1515	130.428980323953	252
1	1515	130.428980323953	253
1	1515	130.428980323953	254
1	1533	132.102469646948	255
1	1533	132.102469646948	256
1	1533	132.102469646948	257
1	1551	133.172209286021	258
1	1551	133.172209286021	259
1	1551	133.172209286021	260
1	1569	134.934694565295	261
1	1569	134.934694565295	262
1	1569	134.934694565295	263
1	1587	136.482665073065	264
1	1587	136.482665073065	265
1	1587	136.482665073065	266
1	1605	137.670406181415	267
1	1605	137.670406181415	268
1	1605	137.670406181415	269
1	1623	139.131884424989	270
1	1623	139.131884424989	271
1	1623	139.131884424989	272
1	1641	140.869968248738	273
1	1641	140.869968248738	274
1	1641	140.869968248738	275
1	1659	141.982278138955	276
1	1659	141.982278138955	277
1	1659	141.982278138955	278
1	1677	143.965487975057	279
1	1677	143.965487975057	280
1	1677	143.965487975057	281
1	1695	145.755329410158	282
1	1695	145.755329410158	283
1	1695	145.755329410158	284
1	1713	147.175027774935	285
1	1713	147.175027774935	286
1	1713	147.175027774935	287
1	1731	148.494202221387	288
1	1731	148.494202221387	289
1	1731	148.494202221387	290
1	1749	150.338012756464	291
1	1749	150.338012756464	292
1	1749	150.338012756464	293
1	1767	151.639839023478	294
1	1767	151.639839023478	295
1	1767	151.639839023478	296
1	1785	153.122441551534	297
1	1785	153.122441551534	298
1	1785	153.122441551534	299
1	1803	154.901990095428	300
1	1803	154.901990095428	301
1	1803	154.901990095428	302
1	1821	156.826405834617	303
1	1821	156.826405834617	304
1	1821	156.826405834617	305
1	1839	158.474392556398	306
1	1839	158.474392556398	307
1	1839	158.474392556398	308
1	1857	160.238234156123	309
1	1857	160.238234156123	310
1	1857	160.238234156123	311
1	1875	161.470478158772	312
1	1875	161.470478158772	313
1	1875	161.470478158772	314
1	1893	162.912968773503	315
1	1893	162.912968773503	316
1	1893	162.912968773503	317
1	1911	164.762255762809	318
1	1911	164.762255762809	319
1	1911	164.762255762809	320
1	1929	165.964185448399	321
1	1929	165.964185448399	322
1	1929	165.964185448399	323
1	1947	167.135661268733	324
1	1947	167.135661268733	325
1	1947	167.135661268733	326
1	1965	168.75244370921	327
1	1965	168.75244370921	328
1	1965	168.75244370921	329
1	1983	170.305029012213	330
1	1983	170.305029012213	331
1	1983	170.305029012213	332
1	2001	171.653773860952	333
1	2001	171.653773860952	334
1	2001	171.653773860952	335
1	2019	173.44759485061	336
1	2019	173.44759485061	337
1	2019	173.44759485061	338
1	2037	174.799948470888	339
1	2037	174.799948470888	340
1	2037	174.799948470888	341
1	2055	176.472797849009	342
1	2055	176.472797849009	343
1	2055	176.472797849009	344
1	2073	178.426244021977	345
1	2073	178.426244021977	346
1	2073	178.426244021977	347
1	2091	179.872174041302	348
1	2091	179.872174041302	349
1	2091	179.872174041302	350
1	2109	181.734084176562	351
1	2109	181.734084176562	352
1	2109	181.734084176562	353
1	2127	183.416284169136	354
1	2127	183.416284169136	355
1	2127	183.416284169136	356
1	2145	185.35391007154	357
1	2145	185.35391007154	358
1	2145	185.35391007154	359
1	2163	187.078083535949	360
1	2163	187.078083535949	361
1	2163	187.078083535949	362
1	2181	188.642064588968	363
1	2181	188.642064588968	364
1	2181	188.642064588968	365
1	2199	189.688411970134	366
1	2199	189.688411970134	367
1	2199	189.688411970134	368
1	2217	191.42996494185	369
1	2217	191.42996494185	370
1	2217	191.42996494185	371
1	2235	192.828403982787	372
1	2235	192.828403982787	373
1	2235	192.828403982787	374
1	2253	193.836443220449	375
1	2253	193.836443220449	376
1	2253	193.836443220449	377
1	2271	195.601758212321	378
1	2271	195.601758212321	379
1	2271	195.601758212321	380
1	2289	197.490119995756	381
1	2289	197.490119995756	382
1	2289	197.490119995756	383
1	2307	198.558747253045	384
1	2307	198.558747253045	385
1	2307	198.558747253045	386
1	2325	199.84925460459	387
1	2325	199.84925460459	388
1	2325	199.84925460459	389
1	2343	201.785067372071	390
1	2343	201.785067372071	391
1	2343	201.785067372071	392
1	2361	203.711860397928	393
1	2361	203.711860397928	394
1	2361	203.711860397928	395
1	2379	205.568596744177	396
1	2379	205.568596744177	397
1	2379	205.568596744177	398
1	2397	207.513392731701	399
1	2397	207.513392731701	400
1	2397	207.513392731701	401
1	2415	209.247786701106	402
1	2415	209.247786701106	403
1	2415	209.247786701106	404
1	2433	211.088214469974	405
1	2433	211.088214469974	406
1	2433	211.088214469974	407
1	2451	212.21373802818	408
1	2451	212.21373802818	409
1	2451	212.21373802818	410
1	2469	214.031075995119	411
1	2469	214.031075995119	412
1	2469	214.031075995119	413
1	2487	215.923475702802	414
1	2487	215.923475702802	415
1	2487	215.923475702802	416
1	2505	217.267497155159	417
1	2505	217.267497155159	418
1	2505	217.267497155159	419
1	2523	218.331227743994	420
1	2523	218.331227743994	421
1	2523	218.331227743994	422
1	2541	220.218706716648	423
1	2541	220.218706716648	424
1	2541	220.218706716648	425
1	2559	221.7801835363	426
1	2559	221.7801835363	427
1	2559	221.7801835363	428
1	2577	223.098804000782	429
1	2577	223.098804000782	430
1	2577	223.098804000782	431
1	2595	224.649689638841	432
1	2595	224.649689638841	433
1	2595	224.649689638841	434
1	2613	226.034936993303	435
1	2613	226.034936993303	436
1	2613	226.034936993303	437
1	2631	227.984482044468	438
1	2631	227.984482044468	439
1	2631	227.984482044468	440
1	2649	229.229922400211	441
1	2649	229.229922400211	442
1	2649	229.229922400211	443
1	2667	230.817036402219	444
1	2667	230.817036402219	445
1	2667	230.817036402219	446
1	2685	231.860292442372	447
1	2685	231.860292442372	448
1	2685	231.860292442372	449
1	2703	233.240903443794	450
1	2703	233.240903443794	451
1	2703	233.240903443794	452
1	2721	234.605232779592	453
1	2721	234.605232779592	454
1	2721	234.605232779592	455
1	2739	236.128785630592	456
1	2739	236.128785630592	457
1	2739	236.128785630592	458
1	2757	237.721827482632	459
1	2757	237.721827482632	460
1	2757	237.721827482632	461
1	2775	239.391349949358	462
1	2775	239.391349949358	463
1	2775	239.391349949358	464
2	7	0.145107829276	0
2	7	0.145107829276	1
2	7	0.145107829276	2
2	26	1.322177853526	3
2	26	1.322177853526	4
2	26	1.322177853526	5
2	44	2.971190938166	6
2	44	2.971190938166	7
2	44	2.971190938166	8
2	61	4.118507833636	9
2	61	4.118507833636	10
2	61	4.118507833636	11
2	84	5.909803750322	12
2	84	5.909803750322	13
2	84	5.909803750322	14
2	101	7.90108643128	15
2	101	7.90108643128	16
2	101	7.90108643128	17
2	123	9.739807327243	18
2	123	9.739807327243	19
2	123	9.739807327243	20
2	133	10.902179283117	21
2	133	10.902179283117	22
2	133	10.902179283117	23
2	151	12.866249095772	24
2	151	12.866249095772	25
2	151	12.866249095772	26
2	169	14.442471950098	27
2	169	14.442471950098	28
2	169	14.442471950098	29
2	187	15.806271551701	30
2	187	15.806271551701	31
2	187	15.806271551701	32
2	205	17.778271521325	33
2	205	17.778271521325	34
2	205	17.778271521325	35
2	223	19.737721526015	36
2	223	19.737721526015	37
2	223	19.737721526015	38
2	242	21.542125188015	39
2	242	21.542125188015	40
2	242	21.542125188015	41
2	259	23.362219855758	42
2	259	23.362219855758	43
2	259	23.362219855758	44
2	278	24.366230141425	45
2	278	24.366230141425	46
2	278	24.366230141425	47
2	296	26.242446134013	48
2	296	26.242446134013	49
2	296	26.242446134013	50
2	314	27.303709967282	51
2	314	27.303709967282	52
2	314	27.303709967282	53
2	331	29.207009031417	54
2	331	29.207009031417	55
2	331	29.207009031417	56
2	350	30.651567863252	57
2	350	30.651567863252	58
2	350	30.651567863252	59
2	367	31.966306080238	60
2	367	31.966306080238	61
2	367	31.966306080238	62
2	385	33.640764893261	63
2	385	33.640764893261	64
2	385	33.640764893261	65
2	403	35.47915094452	66
2	403	35.47915094452	67
2	403	35.47915094452	68
2	421	36.926452938904	69
2	421	36.926452938904	70
2	421	36.926452938904	71
2	440	38.702355029785	72
2	440	38.702355029785	73
2	440	38.702355029785	74
2	457	40.591393287819	75
2	457	40.591393287819	76
2	457	40.591393287819	77
2	475	42.415167927604	78
2	475	42.415167927604	79
2	475	42.415167927604	80
2	493	43.565822193536	81
2	493	43.565822193536	82
2	493	43.565822193536	83
2	511	45.310774855597	84
2	511	45.310774855597	85
2	511	45.310774855597	86
2	533	47.046326393898	87
2	533	47.046326393898	88
2	533	47.046326393898	89
2	548	48.903596297185	90
2	548	48.903596297185	91
2	548	48.903596297185	92
2	566	50.082390135452	93
2	566	50.082390135452	94
2	566	50.082390135452	95
2	583	52.02821042248	96
2	583	52.02821042248	97
2	583	52.02821042248	98
2	602	53.074636671571	99
2	602	53.074636671571	100
2	602	53.074636671571	101
2	620	54.236478970448	102
2	620	54.236478970448	103
2	620	54.236478970448	104
2	637	55.581968495613	105
2	637	55.581968495613	106
2	637	55.581968495613	107
2	655	57.025109396917	108
2	655	57.025109396917	109
2	655	57.025109396917	110
2	674	58.883026738023	111
2	674	58.883026738023	112
2	674	58.883026738023	113
2	691	60.69193014971	114
2	691	60.69193014971	115
2	691	60.69193014971	116
2	713	62.517435950865	117
2	713	62.517435950865	118
2	713	62.517435950865	119
2	727	64.147204095138	120
2	727	64.147204095138	121
2	727	64.147204095138	122
2	745	65.786622093281	123
2	745	65.786622093281	124
2	745	65.786622093281	125
2	764	67.008988510031	126
2	764	67.008988510031	127
2	764	67.008988510031	128
2	782	68.59658111238	129
2	782	68.59658111238	130
2	782	68.59658111238	131
2	799	69.900243060033	132
2	799	69.900243060033	133
2	799	69.900243060033	134
2	818	71.283009224851	135
2	818	71.283009224851	136
2	818	71.283009224851	137
2	835	73.1757342889	138
2	835	73.1757342889	139
2	835	73.1757342889	140
2	854	74.280251870872	141
2	854	74.280251870872	142
2	854	74.280251870872	143
2	875	75.565654287341	144
2	875	75.565654287341	145
2	875	75.565654287341	146
2	889	77.51322272747	147
2	889	77.51322272747	148
2	889	77.51322272747	149
2	907	78.90980048245	150
2	907	78.90980048245	151
2	907	78.90980048245	152
2	929	80.792254292205	153
2	929	80.792254292205	154
2	929	80.792254292205	155
2	943	82.373402237772	156
2	943	82.373402237772	157
2	943	82.373402237772	158
2	962	84.023592016784	159
2	962	84.023592016784	160
2	962	84.023592016784	161
2	980	85.955952528253	162
2	980	85.955952528253	163
2	980	85.955952528253	164
2	998	87.462919660476	165
2	998	87.462919660476	166
2	998	87.462919660476	167
2	1015	88.928346155671	168
2	1015	88.928346155671	169
2	1015	88.928346155671	170
2	1033	90.584455150571	171
2	1033	90.584455150571	172
2	1033	90.584455150571	173
2	1055	91.982738407855	174
2	1055	91.982738407855	175
2	1055	91.982738407855	176
2	1070	93.251111700463	177
2	1070	93.251111700463	178
2	1070	93.251111700463	179
2	1088	94.538314192142	180
2	1088	94.538314192142	181
2	1088	94.538314192142	182
2	1105	96.002680995172	183
2	1105	96.002680995172	184
2	1105	96.002680995172	185
2	1123	97.341070184702	186
2	1123	97.341070184702	187
2	1123	97.341070184702	188
2	1142	98.620251371657	189
2	1142	98.620251371657	190
2	1142	98.620251371657	191
2	1159	99.785296028751	192
2	1159	99.785296028751	193
2	1159	99.785296028751	194
2	1178	101.263448464864	195
2	1178	101.263448464864	196
2	1178	101.263448464864	197
2	1196	102.891386587576	198
2	1196	102.891386587576	199
2	1196	102.891386587576	200
2	1217	104.848586235125	201
2	1217	104.848586235125	202
2	1217	104.848586235125	203
2	1235	106.417011928436	204
2	1235	106.417011928436	205
2	1235	106.417011928436	206
2	1249	108.049120912108	207
2	1249	108.049120912108	208
2	1249	108.049120912108	209
2	1267	109.648465861365	210
2	1267	109.648465861365	211
2	1267	109.648465861365	212
2	1285	110.938805768883	213
2	1285	110.938805768883	214
2	1285	110.938805768883	215
2	1303	112.804476528515	216
2	1303	112.804476528515	217
2	1303	112.804476528515	218
2	1321	113.814849145924	219
2	1321	113.814849145924	220
2	1321	113.814849145924	221
2	1343	114.867819253842	222
2	1343	114.867819253842	223
2	1343	114.867819253842	224
2	1357	116.241592550965	225
2	1357	116.241592550965	226
2	1357	116.241592550965	227
2	1375	118.153459028144	228
2	1375	118.153459028144	229
2	1375	118.153459028144	230
2	1394	120.005501056185	231
2	1394	120.005501056185	232
2	1394	120.005501056185	233
2	1415	121.533109279245	234
2	1415	121.533109279245	235
2	1415	121.533109279245	236
2	1429	123.109125802302	237
2	1429	123.109125802302	238
2	1429	123.109125802302	239
2	1448	124.201256621342	240
2	1448	124.201256621342	241
2	1448	124.201256621342	242
2	1465	125.398236939834	243
2	1465	125.398236939834	244
2	1465	125.398236939834	245
2	1483	127.311997067336	246
2	1483	127.311997067336	247
2	1483	127.311997067336	248
2	1501	128.7397096402	249
2	1501	128.7397096402	250
2	1501	128.7397096402	251
2	1519	130.439153217616	252
2	1519	130.439153217616	253
2	1519	130.439153217616	254
2	1542	132.140829508466	255
2	1542	132.140829508466	256
2	1542	132.140829508466	257
2	1556	133.208021625049	258
2	1556	133.208021625049	259
2	1556	133.208021625049	260
2	1573	134.945971542873	261
2	1573	134.945971542873	262
2	1573	134.945971542873	263
2	1595	136.505280930023	264
2	1595	136.505280930023	265
2	1595	136.505280930023	266
2	1609	137.68325674511	267
2	1609	137.68325674511	268
2	1609	137.68325674511	269
2	1627	139.147606946004	270
2	1627	139.147606946004	271
2	1627	139.147606946004	272
2	1645	140.8801655702	273
2	1645	140.8801655702	274
2	1645	140.8801655702	275
2	1667	142.013589251771	276
2	1667	142.013589251771	277
2	1667	142.013589251771	278
2	1681	143.977749762126	279
2	1681	143.977749762126	280
2	1681	143.977749762126	281
2	1700	145.773215852449	282
2	1700	145.773215852449	283
2	1700	145.773215852449	284
2	1718	147.194761287654	285
2	1718	147.194761287654	286
2	1718	147.194761287654	287
2	1735	148.504221479383	288
2	1735	148.504221479383	289
2	1735	148.504221479383	290
2	1753	150.34871674678	291
2	1753	150.34871674678	292
2	1753	150.34871674678	293
2	1772	151.655848107838	294
2	1772	151.655848107838	295
2	1772	151.655848107838	296
2	1789	153.132572423781	297
2	1789	153.132572423781	298
2	1789	153.132572423781	299
2	1811	154.966382080978	300
2	1811	154.966382080978	301
2	1811	154.966382080978	302
2	1825	156.860355994259	303
2	1825	156.860355994259	304
2	1825	156.860355994259	305
2	1851	158.520160027366	306
2	1851	158.520160027366	307
2	1851	158.520160027366	308
2	1865	160.264468117851	309
2	1865	160.264468117851	310
2	1865	160.264468117851	311
2	1879	161.484332959266	312
2	1879	161.484332959266	313
2	1879	161.484332959266	314
2	1897	162.928086415541	315
2	1897	162.928086415541	316
2	1897	162.928086415541	317
2	1915	164.777306194295	318
2	1915	164.777306194295	319
2	1915	164.777306194295	320
2	1938	166.018902652195	321
2	1938	166.018902652195	322
2	1938	166.018902652195	323
2	1952	167.152523994972	324
2	1952	167.152523994972	325
2	1952	167.152523994972	326
2	1970	168.76435575408	327
2	1970	168.76435575408	328
2	1970	168.76435575408	329
2	1987	170.31908874113	330
2	1987	170.31908874113	331
2	1987	170.31908874113	332
2	2009	171.680563715864	333
2	2009	171.680563715864	334
2	2009	171.680563715864	335
2	2023	173.483269349192	336
2	2023	173.483269349192	337
2	2023	173.483269349192	338
2	2041	174.814745059601	339
2	2041	174.814745059601	340
2	2041	174.814745059601	341
2	2067	176.516292796103	342
2	2067	176.516292796103	343
2	2067	176.516292796103	344
2	2077	178.436803334268	345
2	2077	178.436803334268	346
2	2077	178.436803334268	347
2	2096	179.893281816261	348
2	2096	179.893281816261	349
2	2096	179.893281816261	350
2	2114	181.756655787945	351
2	2114	181.756655787945	352
2	2114	181.756655787945	353
2	2132	183.432757851616	354
2	2132	183.432757851616	355
2	2132	183.432757851616	356
2	2149	185.366467663592	357
2	2149	185.366467663592	358
2	2149	185.366467663592	359
2	2167	187.09157207323	360
2	2167	187.09157207323	361
2	2167	187.09157207323	362
2	2185	188.663810529598	363
2	2185	188.663810529598	364
2	2185	188.663810529598	365
2	2204	189.710562110737	366
2	2204	189.710562110737	367
2	2204	189.710562110737	368
2	2221	191.441278534789	369
2	2221	191.441278534789	370
2	2221	191.441278534789	371
2	2240	192.874447092618	372
2	2240	192.874447092618	373
2	2240	192.874447092618	374
2	2261	193.862696809608	375
2	2261	193.862696809608	376
2	2261	193.862696809608	377
2	2279	195.635549447412	378
2	2279	195.635549447412	379
2	2279	195.635549447412	380
2	2297	197.515470853016	381
2	2297	197.515470853016	382
2	2297	197.515470853016	383
2	2311	198.572188606114	384
2	2311	198.572188606114	385
2	2311	198.572188606114	386
2	2334	199.884593338551	387
2	2334	199.884593338551	388
2	2334	199.884593338551	389
2	2348	201.801807169277	390
2	2348	201.801807169277	391
2	2348	201.801807169277	392
2	2365	203.722056162467	393
2	2365	203.722056162467	394
2	2365	203.722056162467	395
2	2383	205.586266864301	396
2	2383	205.586266864301	397
2	2383	205.586266864301	398
2	2401	207.525762452712	399
2	2401	207.525762452712	400
2	2401	207.525762452712	401
2	2419	209.265858215305	402
2	2419	209.265858215305	403
2	2419	209.265858215305	404
2	2438	211.103450272065	405
2	2438	211.103450272065	406
2	2438	211.103450272065	407
2	2455	212.223992995437	408
2	2455	212.223992995437	409
2	2455	212.223992995437	410
2	2473	214.058913540453	411
2	2473	214.058913540453	412
2	2473	214.058913540453	413
2	2495	215.97716423067	414
2	2495	215.97716423067	415
2	2495	215.97716423067	416
2	2509	217.278113568354	417
2	2509	217.278113568354	418
2	2509	217.278113568354	419
2	2527	218.342240227986	420
2	2527	218.342240227986	421
2	2527	218.342240227986	422
2	2553	220.270699133066	423
2	2553	220.270699133066	424
2	2553	220.270699133066	425
2	2568	221.804243370098	426
2	2568	221.804243370098	427
2	2568	221.804243370098	428
2	2582	223.117748418014	429
2	2582	223.117748418014	430
2	2582	223.117748418014	431
2	2604	224.681185245288	432
2	2604	224.681185245288	433
2	2604	224.681185245288	434
2	2617	226.082987213683	435
2	2617	226.082987213683	436
2	2617	226.082987213683	437
2	2636	228.013200628971	438
2	2636	228.013200628971	439
2	2636	228.013200628971	440
2	2654	229.245425893274	441
2	2654	229.245425893274	442
2	2654	229.245425893274	443
2	2671	230.848503277544	444
2	2671	230.848503277544	445
2	2671	230.848503277544	446
2	2690	231.891807964725	447
2	2690	231.891807964725	448
2	2690	231.891807964725	449
2	2707	233.251575381027	450
2	2707	233.251575381027	451
2	2707	233.251575381027	452
2	2725	234.621654833307	453
2	2725	234.621654833307	454
2	2725	234.621654833307	455
2	2743	236.139085156831	456
2	2743	236.139085156831	457
2	2743	236.139085156831	458
2	2765	237.746337972525	459
2	2765	237.746337972525	460
2	2765	237.746337972525	461
2	2779	239.412152882283	462
2	2779	239.412152882283	463
2	2779	239.412152882283	464
3	8	0.145369217285	0
3	8	0.145369217285	1
3	8	0.145369217285	2
3	25	1.316416466654	3
3	25	1.316416466654	4
3	25	1.316416466654	5
3	43	2.966277788582	6
3	43	2.966277788582	7
3	43	2.966277788582	8
3	62	4.122561708063	9
3	62	4.122561708063	10
3	62	4.122561708063	11
3	79	5.8884719624	12
3	79	5.8884719624	13
3	79	5.8884719624	14
3	97	7.87802135486	15
3	97	7.87802135486	16
3	97	7.87802135486	17
3	115	9.689586073949	18
3	115	9.689586073949	19
3	115	9.689586073949	20
3	134	10.906121995646	21
3	134	10.906121995646	22
3	134	10.906121995646	23
3	152	12.874827862093	24
3	152	12.874827862093	25
3	152	12.874827862093	26
3	170	14.443985243635	27
3	170	14.443985243635	28
3	170	14.443985243635	29
3	188	15.814570672955	30
3	188	15.814570672955	31
3	188	15.814570672955	32
3	206	17.784776560949	33
3	206	17.784776560949	34
3	206	17.784776560949	35
3	227	19.756803070624	36
3	227	19.756803070624	37
3	227	19.756803070624	38
3	241	21.538040117361	39
3	241	21.538040117361	40
3	241	21.538040117361	41
3	260	23.363292235873	42
3	260	23.363292235873	43
3	260	23.363292235873	44
3	277	24.36408997129	45
3	277	24.36408997129	46
3	277	24.36408997129	47
3	295	26.240155478757	48
3	295	26.240155478757	49
3	295	26.240155478757	50
3	313	27.299126964178	51
3	313	27.299126964178	52
3	313	27.299126964178	53
3	336	29.23178418241	54
3	336	29.23178418241	55
3	336	29.23178418241	56
3	349	30.645241337009	57
3	349	30.645241337009	58
3	349	30.645241337009	59
3	371	31.980461858523	60
3	371	31.980461858523	61
3	371	31.980461858523	62
3	386	33.648280630339	63
3	386	33.648280630339	64
3	386	33.648280630339	65
3	404	35.483735393107	66
3	404	35.483735393107	67
3	404	35.483735393107	68
3	425	36.937845540688	69
3	425	36.937845540688	70
3	425	36.937845540688	71
3	439	38.700802060315	72
3	439	38.700802060315	73
3	439	38.700802060315	74
3	458	40.599929392647	75
3	458	40.599929392647	76
3	458	40.599929392647	77
3	476	42.420560518236	78
3	476	42.420560518236	79
3	476	42.420560518236	80
3	501	43.602360959188	81
3	501	43.602360959188	82
3	501	43.602360959188	83
3	512	45.312359410056	84
3	512	45.312359410056	85
3	512	45.312359410056	86
3	529	47.03576343579	87
3	529	47.03576343579	88
3	529	47.03576343579	89
3	547	48.901431348876	90
3	547	48.901431348876	91
3	547	48.901431348876	92
3	565	50.072942071068	93
3	565	50.072942071068	94
3	565	50.072942071068	95
3	584	52.03815490206	96
3	584	52.03815490206	97
3	584	52.03815490206	98
3	601	53.070266118456	99
3	601	53.070266118456	100
3	601	53.070266118456	101
3	619	54.234424059741	102
3	619	54.234424059741	103
3	619	54.234424059741	104
3	638	55.586150571687	105
3	638	55.586150571687	106
3	638	55.586150571687	107
3	656	57.026171174331	108
3	656	57.026171174331	109
3	656	57.026171174331	110
3	673	58.879094512325	111
3	673	58.879094512325	112
3	673	58.879094512325	113
3	692	60.698540359924	114
3	692	60.698540359924	115
3	692	60.698540359924	116
3	709	62.504978114172	117
3	709	62.504978114172	118
3	709	62.504978114172	119
3	728	64.147592059993	120
3	728	64.147592059993	121
3	728	64.147592059993	122
3	746	65.792762865157	123
3	746	65.792762865157	124
3	746	65.792762865157	125
3	763	67.007510882517	126
3	763	67.007510882517	127
3	763	67.007510882517	128
3	781	68.591068007743	129
3	781	68.591068007743	130
3	781	68.591068007743	131
3	800	69.901928082255	132
3	800	69.901928082255	133
3	800	69.901928082255	134
3	817	71.274203813537	135
3	817	71.274203813537	136
3	817	71.274203813537	137
3	839	73.194868214813	138
3	839	73.194868214813	139
3	839	73.194868214813	140
3	853	74.273917583306	141
3	853	74.273917583306	142
3	853	74.273917583306	143
3	871	75.540949492049	144
3	871	75.540949492049	145
3	871	75.540949492049	146
3	890	77.519194707393	147
3	890	77.519194707393	148
3	890	77.519194707393	149
3	915	78.934266398074	150
3	915	78.934266398074	151
3	915	78.934266398074	152
3	925	80.781712854573	153
3	925	80.781712854573	154
3	925	80.781712854573	155
3	944	82.375116905791	156
3	944	82.375116905791	157
3	944	82.375116905791	158
3	961	84.015133422688	159
3	961	84.015133422688	160
3	961	84.015133422688	161
3	979	85.953557174348	162
3	979	85.953557174348	163
3	979	85.953557174348	164
3	997	87.459424325871	165
3	997	87.459424325871	166
3	997	87.459424325871	167
3	1019	88.941342563509	168
3	1019	88.941342563509	169
3	1019	88.941342563509	170
3	1034	90.588448680782	171
3	1034	90.588448680782	172
3	1034	90.588448680782	173
3	1051	91.966658297556	174
3	1051	91.966658297556	175
3	1051	91.966658297556	176
3	1069	93.245765556797	177
3	1069	93.245765556797	178
3	1069	93.245765556797	179
3	1087	94.533471897019	180
3	1087	94.533471897019	181
3	1087	94.533471897019	182
3	1106	96.002838154917	183
3	1106	96.002838154917	184
3	1106	96.002838154917	185
3	1128	97.358280257413	186
3	1128	97.358280257413	187
3	1128	97.358280257413	188
3	1141	98.614821622539	189
3	1141	98.614821622539	190
3	1141	98.614821622539	191
3	1160	99.78653624472	192
3	1160	99.78653624472	193
3	1160	99.78653624472	194
3	1177	101.263335547133	195
3	1177	101.263335547133	196
3	1177	101.263335547133	197
3	1195	102.887450672355	198
3	1195	102.887450672355	199
3	1195	102.887450672355	200
3	1213	104.826508554775	201
3	1213	104.826508554775	202
3	1213	104.826508554775	203
3	1231	106.404585648932	204
3	1231	106.404585648932	205
3	1231	106.404585648932	206
3	1250	108.053464200205	207
3	1250	108.053464200205	208
3	1250	108.053464200205	209
3	1268	109.653604102332	210
3	1268	109.653604102332	211
3	1268	109.653604102332	212
3	1289	110.949803980619	213
3	1289	110.949803980619	214
3	1289	110.949803980619	215
3	1304	112.809865639063	216
3	1304	112.809865639063	217
3	1304	112.809865639063	218
3	1325	113.831962988249	219
3	1325	113.831962988249	220
3	1325	113.831962988249	221
3	1339	114.847113618004	222
3	1339	114.847113618004	223
3	1339	114.847113618004	224
3	1365	116.267427719721	225
3	1365	116.267427719721	226
3	1365	116.267427719721	227
3	1376	118.154950223669	228
3	1376	118.154950223669	229
3	1376	118.154950223669	230
3	1393	119.998237218201	231
3	1393	119.998237218201	232
3	1393	119.998237218201	233
3	1411	121.516546641946	234
3	1411	121.516546641946	235
3	1411	121.516546641946	236
3	1433	123.119553860002	237
3	1433	123.119553860002	238
3	1433	123.119553860002	239
3	1447	124.196141242125	240
3	1447	124.196141242125	241
3	1447	124.196141242125	242
3	1469	125.411466315796	243
3	1469	125.411466315796	244
3	1469	125.411466315796	245
3	1488	127.331412668046	246
3	1488	127.331412668046	247
3	1488	127.331412668046	248
3	1505	128.762295953883	249
3	1505	128.762295953883	250
3	1505	128.762295953883	251
3	1527	130.462076215086	252
3	1527	130.462076215086	253
3	1527	130.462076215086	254
3	1537	132.116552579366	255
3	1537	132.116552579366	256
3	1537	132.116552579366	257
3	1555	133.202130494643	258
3	1555	133.202130494643	259
3	1555	133.202130494643	260
3	1574	134.947480893574	261
3	1574	134.947480893574	262
3	1574	134.947480893574	263
3	1591	136.493597484387	264
3	1591	136.493597484387	265
3	1591	136.493597484387	266
3	1610	137.690742135236	267
3	1610	137.690742135236	268
3	1610	137.690742135236	269
3	1628	139.15565304834	270
3	1628	139.15565304834	271
3	1628	139.15565304834	272
3	1646	140.885651436433	273
3	1646	140.885651436433	274
3	1646	140.885651436433	275
3	1663	141.996879081363	276
3	1663	141.996879081363	277
3	1663	141.996879081363	278
3	1682	143.979666940444	279
3	1682	143.979666940444	280
3	1682	143.979666940444	281
3	1699	145.766231572709	282
3	1699	145.766231572709	283
3	1699	145.766231572709	284
3	1717	147.189987177312	285
3	1717	147.189987177312	286
3	1717	147.189987177312	287
3	1743	148.52846423228	288
3	1743	148.52846423228	289
3	1743	148.52846423228	290
3	1754	150.35115779321	291
3	1754	150.35115779321	292
3	1754	150.35115779321	293
3	1771	151.650528137889	294
3	1771	151.650528137889	295
3	1771	151.650528137889	296
3	1790	153.140446266978	297
3	1790	153.140446266978	298
3	1790	153.140446266978	299
3	1807	154.914254717264	300
3	1807	154.914254717264	301
3	1807	154.914254717264	302
3	1826	156.868007583477	303
3	1826	156.868007583477	304
3	1826	156.868007583477	305
3	1843	158.48549471133	306
3	1843	158.48549471133	307
3	1843	158.48549471133	308
3	1861	160.251437827216	309
3	1861	160.251437827216	310
3	1861	160.251437827216	311
3	1884	161.504865736606	312
3	1884	161.504865736606	313
3	1884	161.504865736606	314
3	1901	162.939927224514	315
3	1901	162.939927224514	316
3	1901	162.939927224514	317
3	1920	164.795612526082	318
3	1920	164.795612526082	319
3	1920	164.795612526082	320
3	1933	166.005255466531	321
3	1933	166.005255466531	322
3	1933	166.005255466531	323
3	1951	167.147875544786	324
3	1951	167.147875544786	325
3	1951	167.147875544786	326
3	1969	168.763019295287	327
3	1969	168.763019295287	328
3	1969	168.763019295287	329
3	1995	170.361101014203	330
3	1995	170.361101014203	331
3	1995	170.361101014203	332
3	2005	171.665430522768	333
3	2005	171.665430522768	334
3	2005	171.665430522768	335
3	2028	173.504048243657	336
3	2028	173.504048243657	337
3	2028	173.504048243657	338
3	2042	174.819476442041	339
3	2042	174.819476442041	340
3	2042	174.819476442041	341
3	2059	176.482874982545	342
3	2059	176.482874982545	343
3	2059	176.482874982545	344
3	2082	178.454092113932	345
3	2082	178.454092113932	346
3	2082	178.454092113932	347
3	2095	179.884291880185	348
3	2095	179.884291880185	349
3	2095	179.884291880185	350
3	2113	181.750121933552	351
3	2113	181.750121933552	352
3	2113	181.750121933552	353
3	2131	183.429552894173	354
3	2131	183.429552894173	355
3	2131	183.429552894173	356
3	2150	185.374802258666	357
3	2150	185.374802258666	358
3	2150	185.374802258666	359
3	2168	187.092286824285	360
3	2168	187.092286824285	361
3	2168	187.092286824285	362
3	2186	188.66644740798	363
3	2186	188.66644740798	364
3	2186	188.66644740798	365
3	2203	189.705446866275	366
3	2203	189.705446866275	367
3	2203	189.705446866275	368
3	2229	191.508102384815	369
3	2229	191.508102384815	370
3	2229	191.508102384815	371
3	2239	192.86544914304	372
3	2239	192.86544914304	373
3	2239	192.86544914304	374
3	2257	193.84702386797	375
3	2257	193.84702386797	376
3	2257	193.84702386797	377
3	2275	195.62136021292	378
3	2275	195.62136021292	379
3	2275	195.62136021292	380
3	2293	197.502671762788	381
3	2293	197.502671762788	382
3	2293	197.502671762788	383
3	2316	198.592258175259	384
3	2316	198.592258175259	385
3	2316	198.592258175259	386
3	2329	199.859781088264	387
3	2329	199.859781088264	388
3	2329	199.859781088264	389
3	2347	201.797488719274	390
3	2347	201.797488719274	391
3	2347	201.797488719274	392
3	2366	203.728807076255	393
3	2366	203.728807076255	394
3	2366	203.728807076255	395
3	2391	205.612767820344	396
3	2391	205.612767820344	397
3	2391	205.612767820344	398
3	2406	207.542284115917	399
3	2406	207.542284115917	400
3	2406	207.542284115917	401
3	2423	209.283359041356	402
3	2423	209.283359041356	403
3	2423	209.283359041356	404
3	2437	211.09988145004	405
3	2437	211.09988145004	406
3	2437	211.09988145004	407
3	2456	212.225425395879	408
3	2456	212.225425395879	409
3	2456	212.225425395879	410
3	2474	214.066687008035	411
3	2474	214.066687008035	412
3	2474	214.066687008035	413
3	2491	215.958798834797	414
3	2491	215.958798834797	415
3	2491	215.958798834797	416
3	2514	217.29164424704	417
3	2514	217.29164424704	418
3	2514	217.29164424704	419
3	2535	218.382715606981	420
3	2535	218.382715606981	421
3	2535	218.382715606981	422
3	2545	220.233928944131	423
3	2545	220.233928944131	424
3	2545	220.233928944131	425
3	2563	221.790583731449	426
3	2563	221.790583731449	427
3	2563	221.790583731449	428
3	2581	223.110373585106	429
3	2581	223.110373585106	430
3	2581	223.110373585106	431
3	2599	224.659879292385	432
3	2599	224.659879292385	433
3	2599	224.659879292385	434
3	2622	226.103490152632	435
3	2622	226.103490152632	436
3	2622	226.103490152632	437
3	2635	228.006728510644	438
3	2635	228.006728510644	439
3	2635	228.006728510644	440
3	2653	229.243181960601	441
3	2653	229.243181960601	442
3	2653	229.243181960601	443
3	2679	230.883890252856	444
3	2679	230.883890252856	445
3	2679	230.883890252856	446
3	2689	231.881889139411	447
3	2689	231.881889139411	448
3	2689	231.881889139411	449
3	2708	233.254231717967	450
3	2708	233.254231717967	451
3	2708	233.254231717967	452
3	2726	234.630094062836	453
3	2726	234.630094062836	454
3	2726	234.630094062836	455
3	2744	236.147123720352	456
3	2744	236.147123720352	457
3	2744	236.147123720352	458
3	2761	237.735722999934	459
3	2761	237.735722999934	460
3	2761	237.735722999934	461
3	2784	239.431173471843	462
3	2784	239.431173471843	463
3	2784	239.431173471843	464
4	15	0.157397542223	0
4	15	0.157397542223	1
4	15	0.157397542223	2
4	33	1.339137349795	3
4	33	1.339137349795	4
4	33	1.339137349795	5
4	48	2.97828338161	6
4	48	2.97828338161	7
4	48	2.97828338161	8
4	69	4.135106308483	9
4	69	4.135106308483	10
4	69	4.135106308483	11
4	83	5.900921636076	12
4	83	5.900921636076	13
4	83	5.900921636076	14
4	102	7.904848885452	15
4	102	7.904848885452	16
4	102	7.904848885452	17
4	119	9.706577972959	18
4	119	9.706577972959	19
4	119	9.706577972959	20
4	141	10.918001692348	21
4	141	10.918001692348	22
4	141	10.918001692348	23
4	159	12.89221455665	24
4	159	12.89221455665	25
4	159	12.89221455665	26
4	177	14.460478781925	27
4	177	14.460478781925	28
4	177	14.460478781925	29
4	195	15.826595357992	30
4	195	15.826595357992	31
4	195	15.826595357992	32
4	213	17.796109797392	33
4	213	17.796109797392	34
4	213	17.796109797392	35
4	228	19.757097746486	36
4	228	19.757097746486	37
4	228	19.757097746486	38
4	249	21.575567671385	39
4	249	21.575567671385	40
4	249	21.575567671385	41
4	267	23.374639608116	42
4	267	23.374639608116	43
4	267	23.374639608116	44
4	282	24.375853709282	45
4	282	24.375853709282	46
4	282	24.375853709282	47
4	300	26.250339868699	48
4	300	26.250339868699	49
4	300	26.250339868699	50
4	321	27.315105820055	51
4	321	27.315105820055	52
4	321	27.315105820055	53
4	335	29.222549273588	54
4	335	29.222549273588	55
4	335	29.222549273588	56
4	354	30.659910079198	57
4	354	30.659910079198	58
4	354	30.659910079198	59
4	372	31.982186224087	60
4	372	31.982186224087	61
4	372	31.982186224087	62
4	390	33.65568058514	63
4	390	33.65568058514	64
4	390	33.65568058514	65
4	411	35.494560979591	66
4	411	35.494560979591	67
4	411	35.494560979591	68
4	426	36.940709056167	69
4	426	36.940709056167	70
4	426	36.940709056167	71
4	447	38.724949189603	72
4	447	38.724949189603	73
4	447	38.724949189603	74
4	465	40.616083947508	75
4	465	40.616083947508	76
4	465	40.616083947508	77
4	480	42.429961077356	78
4	480	42.429961077356	79
4	480	42.429961077356	80
4	497	43.590191135562	81
4	497	43.590191135562	82
4	497	43.590191135562	83
4	519	45.322992539263	84
4	519	45.322992539263	85
4	519	45.322992539263	86
4	534	47.046385462734	87
4	534	47.046385462734	88
4	534	47.046385462734	89
4	555	48.915980188171	90
4	555	48.915980188171	91
4	555	48.915980188171	92
4	573	50.0939248175	93
4	573	50.0939248175	94
4	573	50.0939248175	95
4	588	52.044930177268	96
4	588	52.044930177268	97
4	588	52.044930177268	98
4	609	53.086688623335	99
4	609	53.086688623335	100
4	609	53.086688623335	101
4	627	54.263423956114	102
4	627	54.263423956114	103
4	627	54.263423956114	104
4	642	55.594812714554	105
4	642	55.594812714554	106
4	642	55.594812714554	107
4	663	57.037374000543	108
4	663	57.037374000543	109
4	663	57.037374000543	110
4	681	58.893288722715	111
4	681	58.893288722715	112
4	681	58.893288722715	113
4	696	60.706813874358	114
4	696	60.706813874358	115
4	696	60.706813874358	116
4	714	62.524487749458	117
4	714	62.524487749458	118
4	714	62.524487749458	119
4	732	64.157538152576	120
4	732	64.157538152576	121
4	732	64.157538152576	122
4	750	65.798788668696	123
4	750	65.798788668696	124
4	750	65.798788668696	125
4	771	67.030512250378	126
4	771	67.030512250378	127
4	771	67.030512250378	128
4	789	68.619046691582	129
4	789	68.619046691582	130
4	789	68.619046691582	131
4	807	69.917996639416	132
4	807	69.917996639416	133
4	807	69.917996639416	134
4	825	71.357092735412	135
4	825	71.357092735412	136
4	825	71.357092735412	137
4	840	73.194941386807	138
4	840	73.194941386807	139
4	840	73.194941386807	140
4	858	74.288326068268	141
4	858	74.288326068268	142
4	858	74.288326068268	143
4	876	75.571015737472	144
4	876	75.571015737472	145
4	876	75.571015737472	146
4	897	77.52968514862	147
4	897	77.52968514862	148
4	897	77.52968514862	149
4	911	78.921495852946	150
4	911	78.921495852946	151
4	911	78.921495852946	152
4	933	80.809017705447	153
4	933	80.809017705447	154
4	933	80.809017705447	155
4	951	82.391841395611	156
4	951	82.391841395611	157
4	951	82.391841395611	158
4	969	84.037744091641	159
4	969	84.037744091641	160
4	969	84.037744091641	161
4	984	85.963810748395	162
4	984	85.963810748395	163
4	984	85.963810748395	164
4	1005	87.481716551356	165
4	1005	87.481716551356	166
4	1005	87.481716551356	167
4	1020	88.943866214383	168
4	1020	88.943866214383	169
4	1020	88.943866214383	170
4	1041	90.606811916012	171
4	1041	90.606811916012	172
4	1041	90.606811916012	173
4	1056	91.985011457023	174
4	1056	91.985011457023	175
4	1056	91.985011457023	176
4	1074	93.258261625251	177
4	1074	93.258261625251	178
4	1074	93.258261625251	179
4	1095	94.551224543741	180
4	1095	94.551224543741	181
4	1095	94.551224543741	182
4	1113	96.014531618956	183
4	1113	96.014531618956	184
4	1113	96.014531618956	185
4	1127	97.352696878825	186
4	1127	97.352696878825	187
4	1127	97.352696878825	188
4	1146	98.630128812591	189
4	1146	98.630128812591	190
4	1146	98.630128812591	191
4	1164	99.796162817581	192
4	1164	99.796162817581	193
4	1164	99.796162817581	194
4	1185	101.282269916948	195
4	1185	101.282269916948	196
4	1185	101.282269916948	197
4	1203	102.905522359934	198
4	1203	102.905522359934	199
4	1203	102.905522359934	200
4	1218	104.855435671919	201
4	1218	104.855435671919	202
4	1218	104.855435671919	203
4	1239	106.453337397072	204
4	1239	106.453337397072	205
4	1239	106.453337397072	206
4	1254	108.061330528664	207
4	1254	108.061330528664	208
4	1254	108.061330528664	209
4	1275	109.666106165299	210
4	1275	109.666106165299	211
4	1275	109.666106165299	212
4	1290	110.954781118804	213
4	1290	110.954781118804	214
4	1290	110.954781118804	215
4	1308	112.816643786153	216
4	1308	112.816643786153	217
4	1308	112.816643786153	218
4	1326	113.834336224261	219
4	1326	113.834336224261	220
4	1326	113.834336224261	221
4	1344	114.872544234649	222
4	1344	114.872544234649	223
4	1344	114.872544234649	224
4	1361	116.252858936596	225
4	1361	116.252858936596	226
4	1361	116.252858936596	227
4	1383	118.180399237287	228
4	1383	118.180399237287	229
4	1383	118.180399237287	230
4	1401	120.029086269235	231
4	1401	120.029086269235	232
4	1401	120.029086269235	233
4	1419	121.557905798525	234
4	1419	121.557905798525	235
4	1419	121.557905798525	236
4	1437	123.15062618745	237
4	1437	123.15062618745	238
4	1437	123.15062618745	239
4	1452	124.206899619074	240
4	1452	124.206899619074	241
4	1452	124.206899619074	242
4	1473	125.428272453502	243
4	1473	125.428272453502	244
4	1473	125.428272453502	245
4	1487	127.324917328087	246
4	1487	127.324917328087	247
4	1487	127.324917328087	248
4	1509	128.780317322796	249
4	1509	128.780317322796	250
4	1509	128.780317322796	251
4	1523	130.450068960165	252
4	1523	130.450068960165	253
4	1523	130.450068960165	254
4	1541	132.132738300504	255
4	1541	132.132738300504	256
4	1541	132.132738300504	257
4	1560	133.214836287498	258
4	1560	133.214836287498	259
4	1560	133.214836287498	260
4	1581	134.961881731695	261
4	1581	134.961881731695	262
4	1581	134.961881731695	263
4	1596	136.510198943692	264
4	1596	136.510198943692	265
4	1596	136.510198943692	266
4	1617	137.700952903507	267
4	1617	137.700952903507	268
4	1617	137.700952903507	269
4	1632	139.159469477137	270
4	1632	139.159469477137	271
4	1632	139.159469477137	272
4	1653	140.900878595609	273
4	1653	140.900878595609	274
4	1653	140.900878595609	275
4	1668	142.020355903227	276
4	1668	142.020355903227	277
4	1668	142.020355903227	278
4	1689	143.993698061694	279
4	1689	143.993698061694	280
4	1689	143.993698061694	281
4	1704	145.777389650684	282
4	1704	145.777389650684	283
4	1704	145.777389650684	284
4	1722	147.202178538674	285
4	1722	147.202178538674	286
4	1722	147.202178538674	287
4	1739	148.515695704496	288
4	1739	148.515695704496	289
4	1739	148.515695704496	290
4	1761	150.368751167032	291
4	1761	150.368751167032	292
4	1761	150.368751167032	293
4	1779	151.701846165099	294
4	1779	151.701846165099	295
4	1779	151.701846165099	296
4	1797	153.166632575526	297
4	1797	153.166632575526	298
4	1797	153.166632575526	299
4	1812	154.966633651889	300
4	1812	154.966633651889	301
4	1812	154.966633651889	302
4	1833	156.88125020674	303
4	1833	156.88125020674	304
4	1833	156.88125020674	305
4	1847	158.500892610961	306
4	1847	158.500892610961	307
4	1847	158.500892610961	308
4	1866	160.265123907577	309
4	1866	160.265123907577	310
4	1866	160.265123907577	311
4	1883	161.501701140215	312
4	1883	161.501701140215	313
4	1883	161.501701140215	314
4	1902	162.945917982233	315
4	1902	162.945917982233	316
4	1902	162.945917982233	317
4	1919	164.788712406921	318
4	1919	164.788712406921	319
4	1919	164.788712406921	320
4	1937	166.015259350192	321
4	1937	166.015259350192	322
4	1937	166.015259350192	323
4	1959	167.163884523261	324
4	1959	167.163884523261	325
4	1959	167.163884523261	326
4	1977	168.802998624309	327
4	1977	168.802998624309	328
4	1977	168.802998624309	329
4	1991	170.333534753384	330
4	1991	170.333534753384	331
4	1991	170.333534753384	332
4	2010	171.682808650983	333
4	2010	171.682808650983	334
4	2010	171.682808650983	335
4	2027	173.494837707674	336
4	2027	173.494837707674	337
4	2027	173.494837707674	338
4	2049	174.832137038285	339
4	2049	174.832137038285	340
4	2049	174.832137038285	341
4	2063	176.497449549255	342
4	2063	176.497449549255	343
4	2063	176.497449549255	344
4	2081	178.448865553763	345
4	2081	178.448865553763	346
4	2081	178.448865553763	347
4	2103	179.903324669303	348
4	2103	179.903324669303	349
4	2103	179.903324669303	350
4	2118	181.765664471584	351
4	2118	181.765664471584	352
4	2118	181.765664471584	353
4	2136	183.441700081188	354
4	2136	183.441700081188	355
4	2136	183.441700081188	356
4	2154	185.380387168382	357
4	2154	185.380387168382	358
4	2154	185.380387168382	359
4	2172	187.101647907786	360
4	2172	187.101647907786	361
4	2172	187.101647907786	362
4	2190	188.675905978672	363
4	2190	188.675905978672	364
4	2190	188.675905978672	365
4	2208	189.719220188088	366
4	2208	189.719220188088	367
4	2208	189.719220188088	368
4	2225	191.452140497354	369
4	2225	191.452140497354	370
4	2225	191.452140497354	371
4	2247	192.901640645178	372
4	2247	192.901640645178	373
4	2247	192.901640645178	374
4	2262	193.865923121312	375
4	2262	193.865923121312	376
4	2262	193.865923121312	377
4	2283	195.675962648616	378
4	2283	195.675962648616	379
4	2283	195.675962648616	380
4	2301	197.553848798561	381
4	2301	197.553848798561	382
4	2301	197.553848798561	383
4	2315	198.585889618692	384
4	2315	198.585889618692	385
4	2315	198.585889618692	386
4	2333	199.882656284886	387
4	2333	199.882656284886	388
4	2333	199.882656284886	389
4	2355	201.82598243647	390
4	2355	201.82598243647	391
4	2355	201.82598243647	392
4	2370	203.732982162673	393
4	2370	203.732982162673	394
4	2370	203.732982162673	395
4	2387	205.600601022328	396
4	2387	205.600601022328	397
4	2387	205.600601022328	398
4	2405	207.536430804746	399
4	2405	207.536430804746	400
4	2405	207.536430804746	401
4	2424	209.288192892829	402
4	2424	209.288192892829	403
4	2424	209.288192892829	404
4	2445	211.121818174949	405
4	2445	211.121818174949	406
4	2445	211.121818174949	407
4	2463	212.255393615613	408
4	2463	212.255393615613	409
4	2463	212.255393615613	410
4	2481	214.079051781464	411
4	2481	214.079051781464	412
4	2481	214.079051781464	413
4	2496	215.984871474251	414
4	2496	215.984871474251	415
4	2496	215.984871474251	416
4	2513	217.290182640046	417
4	2513	217.290182640046	418
4	2513	217.290182640046	419
4	2531	218.35684936002	420
4	2531	218.35684936002	421
4	2531	218.35684936002	422
4	2549	220.252102977904	423
4	2549	220.252102977904	424
4	2549	220.252102977904	425
4	2567	221.800818153075	426
4	2567	221.800818153075	427
4	2567	221.800818153075	428
4	2586	223.123166728511	429
4	2586	223.123166728511	430
4	2586	223.123166728511	431
4	2603	224.671752065182	432
4	2603	224.671752065182	433
4	2603	224.671752065182	434
4	2621	226.098984853936	435
4	2621	226.098984853936	436
4	2621	226.098984853936	437
4	2640	228.017337025271	438
4	2640	228.017337025271	439
4	2640	228.017337025271	440
4	2661	229.262624079263	441
4	2661	229.262624079263	442
4	2661	229.262624079263	443
4	2675	230.86603532208	444
4	2675	230.86603532208	445
4	2675	230.86603532208	446
4	2694	231.892074969801	447
4	2694	231.892074969801	448
4	2694	231.892074969801	449
4	2715	233.270214861536	450
4	2715	233.270214861536	451
4	2715	233.270214861536	452
4	2733	234.646571224554	453
4	2733	234.646571224554	454
4	2733	234.646571224554	455
4	2748	236.151819916647	456
4	2748	236.151819916647	457
4	2748	236.151819916647	458
4	2766	237.74778271425	459
4	2766	237.74778271425	460
4	2766	237.74778271425	461
4	2783	239.423675646596	462
4	2783	239.423675646596	463
4	2783	239.423675646596	464
5	18	0.167397542223	0
5	36	1.349137349795	1
5	54	2.98828338161	2
5	72	4.145106308483	3
5	87	5.910921636076	4
5	108	7.914848885452	5
5	122	9.716577972959	6
5	144	10.928001692348	7
5	162	12.90221455665	8
5	180	14.470478781925	9
5	198	15.836595357992	10
5	216	17.806109797392	11
5	234	19.767097746486	12
5	252	21.585567671385	13
5	270	23.384639608116	14
5	288	24.385853709282	15
5	306	26.260339868699	16
5	324	27.325105820055	17
5	339	29.232549273588	18
5	360	30.669910079198	19
5	378	31.992186224087	20
5	396	33.66568058514	21
5	414	35.504560979591	22
5	432	36.950709056167	23
5	450	38.734949189603	24
5	468	40.626083947508	25
5	486	42.439961077356	26
5	500	43.600191135562	27
5	522	45.332992539263	28
5	540	47.056385462734	29
5	558	48.925980188171	30
5	576	50.1039248175	31
5	594	52.054930177268	32
5	612	53.096688623335	33
5	630	54.273423956114	34
5	648	55.604812714554	35
5	666	57.047374000543	36
5	684	58.903288722715	37
5	702	60.716813874358	38
5	720	62.534487749458	39
5	738	64.167538152576	40
5	756	65.808788668696	41
5	774	67.040512250378	42
5	792	68.629046691582	43
5	810	69.927996639416	44
5	828	71.367092735412	45
5	846	73.204941386807	46
5	864	74.298326068268	47
5	882	75.581015737472	48
5	900	77.53968514862	49
5	914	78.931495852946	50
5	936	80.819017705447	51
5	954	82.401841395611	52
5	972	84.047744091641	53
5	990	85.973810748395	54
5	1008	87.491716551356	55
5	1026	88.953866214383	56
5	1044	90.616811916012	57
5	1062	91.995011457023	58
5	1080	93.268261625251	59
5	1098	94.561224543741	60
5	1116	96.024531618956	61
5	1131	97.362696878825	62
5	1152	98.640128812591	63
5	1170	99.806162817581	64
5	1188	101.292269916948	65
5	1206	102.915522359934	66
5	1224	104.865435671919	67
5	1242	106.463337397072	68
5	1260	108.071330528664	69
5	1278	109.676106165299	70
5	1296	110.964781118804	71
5	1314	112.826643786153	72
5	1332	113.844336224261	73
5	1350	114.882544234649	74
5	1364	116.262858936596	75
5	1386	118.190399237287	76
5	1404	120.039086269235	77
5	1422	121.567905798525	78
5	1440	123.16062618745	79
5	1458	124.216899619074	80
5	1476	125.438272453502	81
5	1491	127.334917328087	82
5	1512	128.790317322796	83
5	1526	130.460068960165	84
5	1545	132.142738300504	85
5	1566	133.224836287498	86
5	1584	134.971881731695	87
5	1602	136.520198943692	88
5	1620	137.710952903507	89
5	1638	139.169469477137	90
5	1656	140.910878595609	91
5	1674	142.030355903227	92
5	1692	144.003698061694	93
5	1710	145.787389650684	94
5	1728	147.212178538674	95
5	1742	148.525695704496	96
5	1764	150.378751167032	97
5	1782	151.711846165099	98
5	1800	153.176632575526	99
5	1818	154.976633651889	100
5	1836	156.89125020674	101
5	1850	158.510892610961	102
5	1872	160.275123907577	103
5	1887	161.511701140215	104
5	1908	162.955917982233	105
5	1923	164.798712406921	106
5	1941	166.025259350192	107
5	1962	167.173884523261	108
5	1980	168.812998624309	109
5	1994	170.343534753384	110
5	2016	171.692808650983	111
5	2031	173.504837707674	112
5	2052	174.842137038285	113
5	2066	176.507449549255	114
5	2085	178.458865553763	115
5	2106	179.913324669303	116
5	2124	181.775664471584	117
5	2142	183.451700081188	118
5	2160	185.390387168382	119
5	2178	187.111647907786	120
5	2196	188.685905978672	121
5	2214	189.729220188088	122
5	2228	191.462140497354	123
5	2250	192.911640645178	124
5	2268	193.875923121312	125
5	2286	195.685962648616	126
5	2304	197.563848798561	127
5	2319	198.595889618692	128
5	2337	199.892656284886	129
5	2358	201.83598243647	130
5	2376	203.742982162673	131
5	2390	205.610601022328	132
5	2409	207.546430804746	133
5	2430	209.298192892829	134
5	2448	211.131818174949	135
5	2466	212.265393615613	136
5	2484	214.089051781464	137
5	2502	215.994871474251	138
5	2517	217.300182640046	139
5	2534	218.36684936002	140
5	2552	220.262102977904	141
5	2571	221.810818153075	142
5	2592	223.133166728511	143
5	2607	224.681752065182	144
5	2625	226.108984853936	145
5	2646	228.027337025271	146
5	2664	229.272624079263	147
5	2678	230.87603532208	148
5	2700	231.902074969801	149
5	2718	233.280214861536	150
5	2736	234.656571224554	151
5	2754	236.161819916647	152
5	2772	237.75778271425	153
5	2787	239.433675646596	154

