version 2
run General-4-20231004-17:58:40-8920
attr configname General
attr datetime 20231004-17:58:40
attr experiment General
attr inifile omnetpp.ini
attr iterationvars ""
attr iterationvarsf ""
attr measurement ""
attr network Multihop
attr processid 8920
attr repetition 4
attr replication #4
attr resultdir results
attr runnumber 4
attr seedset 4
param Multihop.node[*].transmissionTime "uniform(1s, 2s)"
param Multihop.node[*].delayTime "uniform(0.01s, 0.2s)"
param Multihop.node[*].processingTime exponential(0.01s)
param Multihop.node[*].lossProbability 0.90

vector 0 Multihop.node[0] txVector ETV
vector 1 Multihop.node[1] txVector ETV
vector 2 Multihop.node[2] txVector ETV
0	1	0.193735669288	0
0	3	2.094357123985	1
0	7	3.267052448974	2
0	9	4.876088047088	3
0	11	6.473644252787	4
0	15	7.615108425649	5
0	17	9.313528665029	6
0	19	11.21670719135	7
0	21	12.849670290867	8
0	23	13.854829440745	9
0	25	15.42718593256	10
0	29	16.788682273975	11
0	31	18.180448469393	12
0	33	19.992396219553	13
0	35	21.604921562749	14
0	37	22.871395345929	15
0	41	24.515309609159	16
0	45	25.534334350296	17
0	47	27.479338195094	18
0	49	28.925687395654	19
0	51	30.367035929033	20
0	53	31.432745467791	21
0	55	32.608606702801	22
0	57	34.474489457825	23
0	59	36.318017576508	24
0	61	38.243170735579	25
0	65	40.1134772109	26
0	67	41.37444928979	27
0	69	42.410207478017	28
0	71	43.638970148204	29
0	73	44.850150703838	30
0	75	46.030871298084	31
0	77	47.346987517005	32
0	79	48.58802612211	33
0	81	49.963394555882	34
0	83	51.596058534146	35
0	85	52.819091054764	36
0	87	53.957842259122	37
0	89	55.534839227948	38
0	91	56.886512939505	39
0	93	58.354263292545	40
0	95	59.713029665792	41
0	97	60.796198760545	42
0	99	62.049108369662	43
0	101	63.096513864738	44
0	103	65.025920519526	45
0	105	66.262061841939	46
0	107	68.072966778804	47
0	109	69.19914843949	48
0	111	70.274854814787	49
0	115	71.960443018158	50
0	117	73.276116506117	51
0	119	75.152388581927	52
0	123	76.850554186772	53
0	125	78.755130279032	54
0	127	80.131549749677	55
0	129	81.978272021436	56
0	131	83.711713166362	57
0	133	85.410694192317	58
0	135	87.080204066508	59
0	137	88.160183306471	60
0	139	89.204831134914	61
0	141	90.300029212297	62
0	143	91.5174595012	63
0	145	93.324476047572	64
0	147	94.424856474543	65
0	149	95.48910785179	66
0	151	97.43305852489	67
0	153	98.595930246789	68
0	155	100.187803892571	69
0	157	102.138158552501	70
0	159	103.50492822138	71
0	161	104.526546917077	72
0	163	106.047221318506	73
0	165	107.354233990111	74
0	167	109.187382541285	75
0	169	111.116751141534	76
0	171	112.245686475341	77
0	173	114.076821908043	78
0	175	115.863575054021	79
0	177	117.553219163712	80
0	181	119.203660272915	81
0	183	120.439811939063	82
0	185	121.921271882408	83
0	187	123.848680492879	84
0	189	125.026088474474	85
0	191	126.179116726543	86
0	193	128.146796355878	87
0	195	129.467412002773	88
0	197	131.353209095697	89
0	199	132.898586009785	90
0	201	134.269692192709	91
0	203	135.406618010875	92
0	205	136.519128346507	93
0	211	137.591411602142	94
0	213	139.468204458867	95
0	215	141.405338964349	96
0	217	142.907987037132	97
0	219	144.655481850652	98
0	221	146.143652943119	99
0	223	147.147573840262	100
0	225	148.609903202548	101
0	227	149.755365529952	102
0	229	151.06416009452	103
0	231	152.81737217672	104
0	233	154.572731570032	105
0	237	156.490243378718	106
0	241	157.580385101185	107
0	243	159.141853565275	108
0	245	160.152280237218	109
0	251	161.382177137229	110
0	253	163.044479572372	111
0	255	164.628023103969	112
0	257	166.354886127794	113
0	259	168.259262749618	114
0	261	169.275980411023	115
0	263	171.172672266066	116
0	265	172.676573249204	117
0	267	174.291392698111	118
0	271	175.426138344146	119
0	273	177.060707838433	120
0	275	178.552495476017	121
0	277	180.483909743531	122
0	279	182.419803577634	123
0	281	183.919765031822	124
0	283	185.32940052093	125
0	285	187.140237636557	126
0	289	188.65600931474	127
0	291	190.526401456138	128
0	293	192.424493233831	129
0	295	193.563675033319	130
0	297	195.293229621993	131
0	301	196.85857398265	132
0	303	198.174850488472	133
0	305	199.928705938318	134
1	5	2.123710255091	0
1	13	6.486186802175	1
1	27	15.446452675536	2
1	39	22.898058715062	3
1	43	24.525715541471	4
1	63	38.271204403769	5
1	113	70.314243425526	6
1	121	75.166794942455	7
1	179	117.590911743288	8
1	207	136.531275625605	9
1	235	154.609568417844	10
1	239	156.50241629467	11
1	247	160.162655818369	12
1	269	174.307778683213	13
1	287	187.156964988604	14
1	299	195.325392571201	15
2	209	136.541304934469	0
2	249	160.173537383228	1

