version 2
run General-3-20231004-17:58:40-8920
attr configname General
attr datetime 20231004-17:58:40
attr experiment General
attr inifile omnetpp.ini
attr iterationvars ""
attr iterationvarsf ""
attr measurement ""
attr network Multihop
attr processid 8920
attr repetition 3
attr replication #3
attr resultdir results
attr runnumber 3
attr seedset 3
param Multihop.node[*].transmissionTime "uniform(1s, 2s)"
param Multihop.node[*].delayTime "uniform(0.01s, 0.2s)"
param Multihop.node[*].processingTime exponential(0.01s)
param Multihop.node[*].lossProbability 0.90

vector 0 Multihop.node[0] txVector ETV
vector 1 Multihop.node[1] txVector ETV
vector 2 Multihop.node[2] txVector ETV
0	1	0.114651601831	0
0	3	1.185376482154	1
0	5	3.025325524457	2
0	7	4.146654103719	3
0	9	5.71596542939	4
0	11	7.153027369477	5
0	13	8.171775379753	6
0	15	9.212406117305	7
0	17	10.460294419037	8
0	19	11.553845914615	9
0	21	13.248669571777	10
0	23	14.394039719201	11
0	25	15.847212018746	12
0	27	17.06278903114	13
0	29	18.416694104041	14
0	31	19.90933002515	15
0	33	21.822631477912	16
0	35	23.588457852437	17
0	37	25.562106123495	18
0	39	26.964466765824	19
0	41	28.517238714335	20
0	43	29.823599341394	21
0	45	31.410219313413	22
0	47	32.685139420977	23
0	49	34.139747185934	24
0	51	35.897412431495	25
0	53	37.714983158814	26
0	55	38.972568450565	27
0	57	40.865633556922	28
0	63	42.584055582131	29
0	67	43.90936175927	30
0	69	45.308352715405	31
0	71	46.733054325287	32
0	73	48.146773008932	33
0	75	49.933911509416	34
0	77	51.647477257135	35
0	79	52.670594825712	36
0	81	53.986362074106	37
0	83	55.549132170458	38
0	85	57.297289607185	39
0	87	58.906913271244	40
0	89	60.110267800116	41
0	91	61.763898652582	42
0	93	63.426584918587	43
0	95	65.297656969237	44
0	97	67.108884725557	45
0	99	68.4830094537	46
0	101	69.558209567401	47
0	103	71.318788057729	48
0	105	72.382557859482	49
0	107	74.223599019298	50
0	109	75.916232766421	51
0	111	77.362133207103	52
0	113	78.724473665772	53
0	115	80.24056828518	54
0	117	81.697900460405	55
0	119	83.506262693392	56
0	121	84.822547226982	57
0	123	86.666334322259	58
0	125	88.155625577854	59
0	127	89.695745179268	60
0	129	91.521873253934	61
0	131	93.043477590732	62
0	133	94.186076937081	63
0	135	95.488340550638	64
0	139	97.295363225579	65
0	141	98.316588965781	66
0	143	99.799034768321	67
0	145	100.825061034948	68
0	147	102.330635092758	69
0	149	104.248665115169	70
0	151	105.45563125082	71
0	153	107.381364035259	72
0	155	108.658687084286	73
0	157	109.834749199521	74
0	159	111.825050388068	75
0	161	113.51770100447	76
0	163	115.269841034502	77
0	165	116.386057624897	78
0	169	117.472058340279	79
0	171	118.801629698207	80
0	173	120.163280315767	81
0	175	121.689391315286	82
0	179	123.114121266012	83
0	181	124.685406010901	84
0	183	126.566516751028	85
0	185	128.36712026184	86
0	187	129.717045483715	87
0	189	131.489784167218	88
0	193	133.386280825199	89
0	195	134.669688197156	90
0	197	136.551596644871	91
0	199	138.09697926168	92
0	201	139.925001378708	93
0	203	141.158693387943	94
0	205	142.361571036118	95
0	209	144.319907269745	96
0	211	145.508158117837	97
0	213	146.977539430211	98
0	215	148.48006964645	99
0	219	149.652432545858	100
0	221	150.92123987463	101
0	223	152.808138002014	102
0	225	154.311393292226	103
0	227	155.883630912123	104
0	229	157.226050498966	105
0	231	158.835696213717	106
0	233	159.956313581277	107
0	235	160.995231679013	108
0	237	162.995207142854	109
0	239	164.263154897677	110
0	241	165.520361275716	111
0	243	166.797002822465	112
0	245	168.048744333048	113
0	247	169.946481362289	114
0	249	171.781727672858	115
0	251	172.928043895239	116
0	255	174.923487070087	117
0	257	176.470617824305	118
0	259	177.962433372462	119
0	261	179.092091756478	120
0	265	180.952145219386	121
0	267	182.776476613783	122
0	269	184.774759738312	123
0	271	186.766055459228	124
0	273	187.923725214625	125
0	275	189.39439119592	126
0	277	191.101822702518	127
0	279	192.441828627676	128
0	281	194.138578615455	129
0	283	195.886986335112	130
0	285	197.704021696072	131
0	287	199.551743650181	132
1	59	40.875841856391	0
1	65	42.610606694499	1
1	137	95.502189752248	2
1	167	116.407012534775	3
1	177	121.716527125246	4
1	191	131.515189366586	5
1	207	142.386101907923	6
1	217	148.493613662518	7
1	253	172.942440254994	8
1	263	179.104555851416	9
2	61	40.887381732167	0

