version 2
run General-2-20231004-17:58:40-8920
attr configname General
attr datetime 20231004-17:58:40
attr experiment General
attr inifile omnetpp.ini
attr iterationvars ""
attr iterationvarsf ""
attr measurement ""
attr network Multihop
attr processid 8920
attr repetition 2
attr replication #2
attr resultdir results
attr runnumber 2
attr seedset 2
param Multihop.node[*].transmissionTime "uniform(1s, 2s)"
param Multihop.node[*].delayTime "uniform(0.01s, 0.2s)"
param Multihop.node[*].processingTime exponential(0.01s)
param Multihop.node[*].lossProbability 0.90

vector 0 Multihop.node[0] txVector ETV
vector 1 Multihop.node[1] txVector ETV
vector 2 Multihop.node[2] txVector ETV
0	1	0.092839031499	0
0	3	1.277921112972	1
0	5	3.20946197656	2
0	7	5.157192587406	3
0	9	6.641941683619	4
0	11	7.962478119899	5
0	13	9.116904795422	6
0	15	10.815767484736	7
0	17	11.935718028592	8
0	19	13.420893943422	9
0	21	15.053631674052	10
0	23	16.871858396121	11
0	25	18.554884391158	12
0	27	20.053445558782	13
0	29	21.640242537736	14
0	31	23.359996768666	15
0	33	24.618494850138	16
0	35	26.164702166591	17
0	37	27.572009999093	18
0	39	28.748994622866	19
0	41	30.718627030516	20
0	43	32.015645390397	21
0	45	33.303514210295	22
0	47	34.419707532993	23
0	49	35.601434570292	24
0	51	37.09572433822	25
0	53	38.661489468554	26
0	55	39.883324635701	27
0	57	41.650815812193	28
0	59	43.22812388234	29
0	61	44.395947196774	30
0	63	45.763418565757	31
0	65	47.232092148179	32
0	67	48.886358330279	33
0	69	50.679448073284	34
0	71	52.342509868807	35
0	73	53.955539562526	36
0	75	55.946391559458	37
0	77	57.065876358674	38
0	79	58.214441139038	39
0	83	60.066722172099	40
0	85	61.283992091912	41
0	87	63.277258383828	42
0	89	64.592555864966	43
0	91	65.851289036004	44
0	93	67.660464321049	45
0	95	69.014139694413	46
0	97	70.481982185989	47
0	101	71.756155439438	48
0	103	73.570293856337	49
0	105	75.518384279701	50
0	107	77.341268914769	51
0	109	78.856408036564	52
0	111	80.077406191051	53
0	113	81.824037604051	54
0	115	83.255575374019	55
0	121	85.143879120488	56
0	123	86.845921157411	57
0	125	88.552463159448	58
0	127	90.03348491459	59
0	129	91.993798644532	60
0	131	93.419821171573	61
0	133	94.742695388634	62
0	135	96.504625387507	63
0	139	98.437253948318	64
0	141	99.954684709449	65
0	143	101.839156308694	66
0	145	103.392790154571	67
0	147	104.966432652919	68
0	149	106.360365944233	69
0	151	108.286912692728	70
0	153	109.292457113758	71
0	155	111.02095561616	72
0	157	112.37670924004	73
0	159	113.589642482128	74
0	161	114.951669888821	75
0	163	116.829970177513	76
0	165	118.193296068831	77
0	167	119.696502985916	78
0	169	121.463991244574	79
0	171	123.378466816404	80
0	173	125.204834822117	81
0	175	126.616581262805	82
0	179	128.247423918935	83
0	181	129.629116857442	84
0	183	131.59157643306	85
0	185	133.238590658893	86
0	187	135.196436330694	87
0	189	136.999888459937	88
0	191	138.229274424044	89
0	193	140.10847645441	90
0	195	141.700972817623	91
0	197	143.487145063485	92
0	199	145.019289504289	93
0	201	146.987580076577	94
0	203	148.562533614244	95
0	205	150.039377020457	96
0	207	151.460515388073	97
0	209	153.059495360609	98
0	211	154.166067894334	99
0	213	155.53467543588	100
0	217	156.750481833257	101
0	219	158.54870242185	102
0	221	160.103241895345	103
0	225	161.998387634075	104
0	227	163.976021024883	105
0	229	165.89373974667	106
0	231	166.933750981717	107
0	233	168.666573469313	108
0	235	170.562947345683	109
0	237	172.400777893625	110
0	239	173.937231591688	111
0	241	175.258550175251	112
0	243	176.65580416752	113
0	245	177.933243382741	114
0	247	179.86949142606	115
0	249	181.333234034032	116
0	251	183.185522994278	117
0	253	184.398290365255	118
0	255	185.398413949432	119
0	257	186.491310215341	120
0	259	187.6664266044	121
0	261	189.18128577156	122
0	263	191.061276122714	123
0	265	192.846068045609	124
0	267	194.375889221458	125
0	269	195.649727090979	126
0	271	196.676111237165	127
0	273	198.545819858341	128
0	277	199.821257722816	129
1	81	58.231564966672	0
1	99	70.507986986971	1
1	117	83.293910369355	2
1	137	96.527046193228	3
1	177	126.630765422988	4
1	215	155.561137032711	5
1	223	160.13971237313	6
1	275	198.557388857059	7
2	119	83.310902268365	0

