version 2
run General-0-20231004-17:58:40-8920
attr configname General
attr datetime 20231004-17:58:40
attr experiment General
attr inifile omnetpp.ini
attr iterationvars ""
attr iterationvarsf ""
attr measurement ""
attr network Multihop
attr processid 8920
attr repetition 0
attr replication #0
attr resultdir results
attr runnumber 0
attr seedset 0
param Multihop.node[*].transmissionTime "uniform(1s, 2s)"
param Multihop.node[*].delayTime "uniform(0.01s, 0.2s)"
param Multihop.node[*].processingTime exponential(0.01s)
param Multihop.node[*].lossProbability 0.90

vector 0 Multihop.node[0] txVector ETV
vector 1 Multihop.node[1] txVector ETV
0	1	0.114274565438	0
0	3	1.707119181827	1
0	5	3.551384925917	2
0	7	5.409330545766	3
0	9	7.256582283023	4
0	11	8.88014597942	5
0	13	10.264527687643	6
0	15	11.562062292898	7
0	19	12.618775268624	8
0	21	14.096440380279	9
0	23	15.908609106744	10
0	25	17.388586278146	11
0	29	18.781371071309	12
0	31	20.11876723294	13
0	33	21.766939109497	14
0	35	23.135180646859	15
0	37	25.092335801178	16
0	39	26.232686578601	17
0	43	28.102773829668	18
0	45	29.903684582167	19
0	47	31.424162062655	20
0	49	33.103041596317	21
0	51	34.823674247905	22
0	53	36.405694039145	23
0	57	37.943067267376	24
0	59	39.048974873803	25
0	61	40.522575296534	26
0	63	41.708907641077	27
0	65	43.445825818998	28
0	67	44.662376175706	29
0	69	45.797594348971	30
0	71	47.121735353094	31
0	73	48.271410216881	32
0	75	49.493731602399	33
0	79	50.880220580452	34
0	81	52.330170570013	35
0	83	53.943234031859	36
0	85	55.845582610068	37
0	87	56.944862961608	38
0	89	58.914672030208	39
0	91	60.567812062406	40
0	93	61.738721648536	41
0	95	63.096873818736	42
0	97	64.847559957604	43
0	99	66.455390624308	44
0	101	67.780437851862	45
0	103	68.818863277395	46
0	107	70.45313733055	47
0	109	72.105927649492	48
0	111	73.74098652655	49
0	113	75.736286092156	50
0	115	77.318136424364	51
0	117	78.732505012376	52
0	119	80.2072025175	53
0	121	81.830712623501	54
0	123	83.16872024101	55
0	125	84.843472563268	56
0	127	86.160674308033	57
0	129	87.939019789758	58
0	131	89.88859084116	59
0	133	91.551117709211	60
0	135	92.564689351085	61
0	137	94.187535444347	62
0	139	95.861195075398	63
0	143	97.833140074348	64
0	147	99.342764446119	65
0	149	100.793923660021	66
0	151	101.813911332356	67
0	153	103.255622253826	68
0	155	105.235208984304	69
0	157	106.594653453285	70
0	159	108.075546989523	71
0	161	109.76420817578	72
0	163	111.644684068931	73
0	165	113.5629195418	74
0	167	114.779741674967	75
0	169	116.34493054061	76
0	171	118.210033104595	77
0	173	119.719002065554	78
0	175	121.635725022133	79
0	177	123.556882634133	80
0	181	124.639995120771	81
0	183	125.649351822518	82
0	185	127.491693901669	83
0	187	129.138868040245	84
0	189	130.980254162408	85
0	191	132.244984326724	86
0	193	133.642805078372	87
0	195	135.195626562534	88
0	197	136.360567023119	89
0	199	137.730375118859	90
0	201	138.876816882126	91
0	203	140.446435286503	92
0	205	142.1501725673	93
0	209	143.438648999741	94
0	211	145.194755691176	95
0	213	146.590853969406	96
0	215	148.486892358705	97
0	217	150.125813438862	98
0	221	152.017367869688	99
0	223	153.4665656016	100
0	225	155.445136525508	101
0	227	156.561338435465	102
0	229	158.328362138083	103
0	231	159.740182279914	104
0	233	161.415621357111	105
0	235	162.66541763216	106
0	237	163.978635964289	107
0	239	165.944052182909	108
0	241	167.532517266299	109
0	243	169.192185680454	110
0	247	170.725391932137	111
0	249	172.120261224292	112
0	251	173.739069785297	113
0	253	175.213937306849	114
0	255	176.684069495255	115
0	257	178.400144028783	116
0	259	179.688135032615	117
0	261	181.071597258633	118
0	263	182.820767094687	119
0	265	184.699219285816	120
0	267	185.80208264578	121
0	269	186.894456532391	122
0	271	188.248503196825	123
0	273	189.800319451912	124
0	275	190.833944545666	125
0	277	192.802906311656	126
0	279	194.123903555403	127
0	281	195.345166238098	128
0	283	196.486430140984	129
0	285	197.583690067594	130
0	287	199.567732303011	131
1	17	11.575245854306	0
1	27	17.416669970789	1
1	41	26.249103670328	2
1	55	36.429907685946	3
1	77	49.527020736141	4
1	105	68.860792743816	5
1	141	95.892248288406	6
1	145	97.843713343612	7
1	179	123.570136038288	8
1	207	142.165851608835	9
1	219	150.147209518497	10
1	245	169.204806252871	11

