version 2
run General-1-20231004-17:58:40-8920
attr configname General
attr datetime 20231004-17:58:40
attr experiment General
attr inifile omnetpp.ini
attr iterationvars ""
attr iterationvarsf ""
attr measurement ""
attr network Multihop
attr processid 8920
attr repetition 1
attr replication #1
attr resultdir results
attr runnumber 1
attr seedset 1
param Multihop.node[*].transmissionTime "uniform(1s, 2s)"
param Multihop.node[*].delayTime "uniform(0.01s, 0.2s)"
param Multihop.node[*].processingTime exponential(0.01s)
param Multihop.node[*].lossProbability 0.90

vector 0 Multihop.node[0] txVector ETV
vector 1 Multihop.node[1] txVector ETV
0	1	0.089234179703	0
0	3	2.086418987836	1
0	5	4.018976349036	2
0	7	5.147100796808	3
0	9	7.146141312203	4
0	11	8.382230288467	5
0	13	9.778811014608	6
0	15	11.166721754825	7
0	17	12.836467795192	8
0	19	14.772006867804	9
0	21	16.618317786023	10
0	23	17.931591299014	11
0	25	19.45613946172	12
0	27	20.899592355476	13
0	29	22.129169575521	14
0	31	23.663583482732	15
0	33	25.577545505133	16
0	35	27.034750314313	17
0	37	28.46544888441	18
0	39	30.404576679343	19
0	41	32.182965914836	20
0	45	33.898936425686	21
0	47	34.991737235921	22
0	49	36.509889784154	23
0	51	38.374910029468	24
0	53	40.20405694016	25
0	55	42.033660304851	26
0	57	43.306710282226	27
0	59	44.365953479313	28
0	61	46.036481520512	29
0	63	47.629547037302	30
0	67	49.301201128984	31
0	69	50.498752022512	32
0	71	51.788381666295	33
0	73	52.930501799216	34
0	75	54.713816271746	35
0	77	56.126355116838	36
0	79	57.160526426859	37
0	83	58.78455641016	38
0	85	60.083051708644	39
0	87	61.529186209315	40
0	89	62.751310757711	41
0	91	63.824674931937	42
0	95	65.293913456728	43
0	97	67.197283628048	44
0	99	68.316774101812	45
0	101	69.841573484825	46
0	103	70.925196490135	47
0	105	72.842057824485	48
0	107	74.7525062043	49
0	109	76.051436315176	50
0	111	77.635825439009	51
0	113	79.201737467551	52
0	115	80.815675785884	53
0	117	82.772211444683	54
0	119	84.03319042607	55
0	121	85.26420584752	56
0	123	86.797654340395	57
0	125	88.747592473987	58
0	127	90.240652067473	59
0	129	91.781252575924	60
0	131	93.546737683124	61
0	133	94.59208340815	62
0	135	95.732049528395	63
0	139	97.524453107619	64
0	143	99.407578579269	65
0	145	100.855558762213	66
0	147	102.74769463076	67
0	149	104.125278975933	68
0	151	105.663703670611	69
0	155	107.316002548791	70
0	157	108.887011110901	71
0	159	110.524847589552	72
0	161	111.651162470344	73
0	163	113.341367059972	74
0	165	114.98911645578	75
0	167	116.343055547567	76
0	169	118.10628860479	77
0	171	119.462820321673	78
0	173	121.215608671892	79
0	177	123.096950500857	80
0	179	124.595059570277	81
0	181	125.668851581288	82
0	185	127.455803055202	83
0	187	128.811113418431	84
0	189	130.752950366239	85
0	191	132.132753656364	86
0	195	133.895673723544	87
0	197	135.197034224055	88
0	199	136.969773367399	89
0	201	138.122703189848	90
0	203	139.701337121779	91
0	205	140.710345117262	92
0	207	142.41938763962	93
0	211	143.890028444704	94
0	213	145.357421130061	95
0	217	146.626422179749	96
0	221	148.177747118406	97
0	223	149.650222159809	98
0	227	151.392986986906	99
0	229	152.857298494437	100
0	231	154.087661298578	101
0	233	155.595908836116	102
0	237	156.804477144386	103
0	239	158.32333901979	104
0	241	159.495617376761	105
0	243	160.89193066501	106
0	245	161.999295973339	107
0	247	163.509106251531	108
0	249	164.611241483948	109
0	251	165.899959316597	110
0	253	167.131717780026	111
0	255	169.099385705663	112
0	257	170.377704548303	113
0	259	171.611327075984	114
0	261	172.702883516324	115
0	265	174.272950174173	116
0	267	175.640793414672	117
0	269	177.453788386311	118
0	271	178.743548388013	119
0	273	180.460939990009	120
0	275	182.073888080313	121
0	277	183.500797903982	122
0	279	185.252670873308	123
0	281	186.680483508508	124
0	283	188.108865918012	125
0	285	189.47077036754	126
0	287	190.62410885154	127
0	289	192.561299177471	128
0	291	194.477709050642	129
0	293	196.259667513312	130
0	295	197.875996456134	131
0	297	198.911995891833	132
1	43	32.209199128428	0
1	65	47.644853713763	1
1	81	57.181333238759	2
1	93	63.835686096824	3
1	137	95.742352072845	4
1	141	97.542235544811	5
1	153	105.678186264565	6
1	175	121.225726050029	7
1	183	125.679513698644	8
1	193	132.157520005263	9
1	209	142.443852014854	10
1	215	145.38524076153	11
1	219	146.637148763003	12
1	225	149.662353548415	13
1	235	155.606414448011	14
1	263	172.718295102487	15

