version 2
run General-0-20231008-07:04:34-16872
attr configname General
attr datetime 20231008-07:04:34
attr experiment General
attr inifile omnetpp.ini
attr iterationvars ""
attr iterationvarsf ""
attr measurement ""
attr network Network2
attr processid 16872
attr repetition 0
attr replication #0
attr resultdir results
attr runnumber 0
attr seedset 0
param Network2.node[*].transmissionTime "uniform(1s, 2s)"
param Network2.node[*].delayTime "uniform(0.01s, 0.2s)"
param Network2.node[*].processingTime exponential(0.01s)
param Network2.node[*].lossProbability 0.75

vector 0 Network2.node[0] txVector ETV
vector 1 Network2.node[1] txVector ETV
vector 2 Network2.node[6] txVector ETV
vector 3 Network2.node[3] txVector ETV
vector 4 Network2.node[2] txVector ETV
vector 5 Network2.node[4] txVector ETV
vector 6 Network2.node[5] rxVector ETV
0	1	0.114274565438	0
0	3	1.707119181827	1
0	5	3.551384925917	2
0	7	5.409330545766	3
0	9	7.256582283023	4
0	11	8.88014597942	5
0	13	10.264527687643	6
0	20	11.562062292898	7
0	30	13.353787326327	8
0	32	14.440916623295	9
0	34	15.461135022415	10
0	57	17.293754865255	11
0	59	18.399662471682	12
0	61	19.873262894413	13
0	68	21.059595238956	14
0	70	22.078385036977	15
0	72	23.696020537827	16
0	74	25.30811626029	17
0	76	26.925050258942	18
0	83	28.868798334224	19
0	85	30.771146912433	20
0	87	31.870427263973	21
0	89	33.840236332573	22
0	91	35.493376364771	23
0	93	36.664285950901	24
0	95	38.022438121101	25
0	97	39.773124259969	26
0	99	41.380954926673	27
0	101	42.706002154227	28
0	103	43.74442757976	29
0	110	45.378701632915	30
0	117	46.540011144083	31
0	119	48.014708649207	32
0	121	49.638218755208	33
0	123	50.976226372717	34
0	125	52.650978694975	35
0	127	53.96818043974	36
0	129	55.746525921465	37
0	131	57.696096972867	38
0	150	59.358623840918	39
0	152	60.397811629881	40
0	159	61.68061858935	41
0	161	63.369279775607	42
0	163	65.249755668758	43
0	165	67.167991141627	44
0	167	68.384813274794	45
0	169	69.950002140437	46
0	171	71.815104704422	47
0	173	73.324073665381	48
0	175	75.24079662196	49
0	177	77.16195423396	50
0	187	78.245066720598	51
0	189	80.086452842761	52
0	191	81.351183007077	53
0	193	82.749003758725	54
0	195	84.301825242887	55
0	202	85.466765703472	56
0	204	86.736773672119	57
0	206	88.471967692558	58
0	208	90.434156237474	59
0	228	91.682909377223	60
0	230	93.496707196884	61
0	232	94.893212935725	62
0	234	96.774316136563	63
0	236	98.355589012453	64
0	243	100.237324372004	65
0	250	101.770530623687	66
0	252	103.376923840563	67
0	254	104.39611704119	68
0	256	105.697691857419	69
0	258	107.357865395793	70
0	260	108.647943005734	71
0	262	110.265958432644	72
0	269	111.694727131236	73
0	271	113.04877379567	74
0	273	114.600590050757	75
0	275	115.634215144511	76
0	277	117.603176910501	77
0	279	118.924174154248	78
0	294	120.145436836943	79
0	296	122.064919449925	80
0	298	123.779160748306	81
0	314	125.778007751168	82
0	316	127.347108495492	83
0	318	128.754291793169	84
0	325	129.823458783399	85
0	340	130.874046896189	86
0	342	132.395083499211	87
0	344	133.449421485257	88
0	346	134.649418010679	89
0	348	135.667939804797	90
0	350	137.461637507263	91
0	365	138.685562189971	92
0	367	140.384660267574	93
0	377	142.377056663227	94
0	379	144.341546428925	95
0	381	145.895788865001	96
0	383	147.108179366984	97
0	385	148.330622590449	98
0	395	149.549371958314	99
0	397	150.63466752537	100
0	399	151.69108585997	101
0	401	153.178923565964	102
0	403	155.059928124607	103
0	405	157.036332514905	104
0	407	158.653990434087	105
0	409	160.196489211009	106
0	411	162.051102794078	107
0	413	163.794937336421	108
0	415	165.27353366285	109
0	417	166.950615239166	110
0	424	168.557660300121	111
0	447	170.220738503686	112
0	449	172.106076167966	113
0	459	173.785955622862	114
0	461	175.666253227345	115
0	463	176.979945624783	116
0	465	178.937396480772	117
0	467	180.409148056596	118
0	469	182.120731878165	119
0	471	183.274426181638	120
0	473	185.004868362169	121
0	475	186.651132797194	122
0	477	187.866013533739	123
0	479	189.052471752349	124
0	486	190.860052017333	125
0	488	191.992120127032	126
0	490	193.708979806934	127
0	492	195.105039510714	128
0	499	196.670460818406	129
0	501	197.7952938793	130
0	508	199.517374540051	131
0	510	201.421094279574	132
0	512	202.504516714323	133
0	514	204.056709185779	134
0	516	205.64118525812	135
0	518	207.603121641628	136
0	520	208.895269172336	137
0	522	210.136097949534	138
0	524	211.236391894124	139
0	526	212.252821525396	140
0	528	214.182350843516	141
0	535	215.852267385763	142
0	537	217.033898591366	143
0	539	218.546292056864	144
0	546	220.126739187468	145
0	548	222.088309345137	146
0	567	223.320010970648	147
0	569	225.29426963867	148
0	571	227.15657941934	149
0	583	228.937006068484	150
0	590	230.365229895406	151
0	613	231.589546919402	152
0	615	232.914857228587	153
0	617	234.867727899759	154
0	619	235.881676297936	155
0	639	237.415141974178	156
0	641	238.511691588511	157
0	643	239.767831171465	158
1	15	10.275111534334	0
1	15	10.275111534334	1
1	15	10.275111534334	2
1	15	10.275111534334	3
1	22	11.579589034031	4
1	22	11.579589034031	5
1	22	11.579589034031	6
1	22	11.579589034031	7
1	36	15.486192865001	8
1	36	15.486192865001	9
1	36	15.486192865001	10
1	36	15.486192865001	11
1	63	19.896615796259	12
1	63	19.896615796259	13
1	63	19.896615796259	14
1	63	19.896615796259	15
1	78	26.946501648489	16
1	78	26.946501648489	17
1	78	26.946501648489	18
1	78	26.946501648489	19
1	105	43.786357046181	20
1	105	43.786357046181	21
1	105	43.786357046181	22
1	105	43.786357046181	23
1	112	45.399289060066	24
1	112	45.399289060066	25
1	112	45.399289060066	26
1	112	45.399289060066	27
1	133	57.706233618651	28
1	133	57.706233618651	29
1	133	57.706233618651	30
1	133	57.706233618651	31
1	154	60.409092197534	32
1	154	60.409092197534	33
1	154	60.409092197534	34
1	154	60.409092197534	35
1	179	77.175207638115	36
1	179	77.175207638115	37
1	179	77.175207638115	38
1	179	77.175207638115	39
1	197	84.316442551847	40
1	197	84.316442551847	41
1	197	84.316442551847	42
1	197	84.316442551847	43
1	210	90.452740167152	44
1	210	90.452740167152	45
1	210	90.452740167152	46
1	210	90.452740167152	47
1	238	98.377382841789	48
1	238	98.377382841789	49
1	238	98.377382841789	50
1	238	98.377382841789	51
1	245	100.249944944421	52
1	245	100.249944944421	53
1	245	100.249944944421	54
1	245	100.249944944421	55
1	264	110.277414172428	56
1	264	110.277414172428	57
1	264	110.277414172428	58
1	264	110.277414172428	59
1	281	118.935697090501	60
1	281	118.935697090501	61
1	281	118.935697090501	62
1	281	118.935697090501	63
1	300	123.790779449173	64
1	300	123.790779449173	65
1	300	123.790779449173	66
1	300	123.790779449173	67
1	320	128.776246178832	68
1	320	128.776246178832	69
1	320	128.776246178832	70
1	320	128.776246178832	71
1	327	129.838007901847	72
1	327	129.838007901847	73
1	327	129.838007901847	74
1	327	129.838007901847	75
1	352	137.475874078277	76
1	352	137.475874078277	77
1	352	137.475874078277	78
1	352	137.475874078277	79
1	369	140.397769945624	80
1	369	140.397769945624	81
1	369	140.397769945624	82
1	369	140.397769945624	83
1	387	148.349052378203	84
1	387	148.349052378203	85
1	387	148.349052378203	86
1	387	148.349052378203	87
1	419	166.973157271867	88
1	419	166.973157271867	89
1	419	166.973157271867	90
1	419	166.973157271867	91
1	426	168.570716349139	92
1	426	168.570716349139	93
1	426	168.570716349139	94
1	426	168.570716349139	95
1	451	172.122166614093	96
1	451	172.122166614093	97
1	451	172.122166614093	98
1	451	172.122166614093	99
1	481	189.076218551887	100
1	481	189.076218551887	101
1	481	189.076218551887	102
1	481	189.076218551887	103
1	494	195.117064098351	104
1	494	195.117064098351	105
1	494	195.117064098351	106
1	494	195.117064098351	107
1	503	197.805603142216	108
1	503	197.805603142216	109
1	503	197.805603142216	110
1	503	197.805603142216	111
1	530	214.207729130661	112
1	530	214.207729130661	113
1	530	214.207729130661	114
1	530	214.207729130661	115
1	541	218.571782173656	116
1	541	218.571782173656	117
1	541	218.571782173656	118
1	541	218.571782173656	119
1	550	222.128131351892	120
1	550	222.128131351892	121
1	550	222.128131351892	122
1	550	222.128131351892	123
1	573	227.208598013602	124
1	573	227.208598013602	125
1	573	227.208598013602	126
1	573	227.208598013602	127
1	585	228.950542034237	128
1	585	228.950542034237	129
1	585	228.950542034237	130
1	585	228.950542034237	131
1	592	230.376259579043	132
1	592	230.376259579043	133
1	592	230.376259579043	134
1	592	230.376259579043	135
1	621	235.895308720125	136
1	621	235.895308720125	137
1	621	235.895308720125	138
1	621	235.895308720125	139
2	27	11.607672726674	0
2	27	11.607672726674	1
2	42	15.51233288575	2
2	42	15.51233288575	3
2	147	57.769058244581	4
2	147	57.769058244581	5
2	184	77.186620945251	6
2	184	77.186620945251	7
2	286	118.967946237073	8
2	286	118.967946237073	9
2	362	137.50704503887	10
2	362	137.50704503887	11
2	374	140.416683731393	12
2	374	140.416683731393	13
2	392	148.361632505842	14
2	392	148.361632505842	15
2	431	168.602051982014	16
2	431	168.602051982014	17
2	456	172.161611416867	18
2	456	172.161611416867	19
2	564	222.179604738829	20
2	564	222.179604738829	21
2	602	230.401812522647	22
2	602	230.401812522647	23
3	41	15.502609956728	0
3	41	15.502609956728	1
3	41	15.502609956728	2
3	138	57.727431762309	3
3	138	57.727431762309	4
3	138	57.727431762309	5
3	215	90.471232375268	6
3	215	90.471232375268	7
3	215	90.471232375268	8
3	310	123.830001567168	9
3	310	123.830001567168	10
3	310	123.830001567168	11
3	332	129.850631194939	12
3	332	129.850631194939	13
3	332	129.850631194939	14
3	439	168.634222042621	15
3	439	168.634222042621	16
3	439	168.634222042621	17
3	555	222.144789776758	18
3	555	222.144789776758	19
3	555	222.144789776758	20
3	597	230.390469512023	21
3	597	230.390469512023	22
3	597	230.390469512023	23
3	635	235.937102766388	24
3	635	235.937102766388	25
3	635	235.937102766388	26
4	46	15.51660178716	0
4	46	15.51660178716	1
4	46	15.51660178716	2
4	46	15.51660178716	3
4	142	57.758484975317	4
4	142	57.758484975317	5
4	142	57.758484975317	6
4	142	57.758484975317	7
4	219	90.511755191837	8
4	219	90.511755191837	9
4	219	90.511755191837	10
4	219	90.511755191837	11
4	289	118.985647005668	12
4	289	118.985647005668	13
4	289	118.985647005668	14
4	289	118.985647005668	15
4	305	123.801162278302	16
4	305	123.801162278302	17
4	305	123.801162278302	18
4	305	123.801162278302	19
4	357	137.495245465454	20
4	357	137.495245465454	21
4	357	137.495245465454	22
4	357	137.495245465454	23
4	434	168.616888365889	24
4	434	168.616888365889	25
4	434	168.616888365889	26
4	434	168.616888365889	27
4	556	222.150703721848	28
4	556	222.150703721848	29
4	556	222.150703721848	30
4	556	222.150703721848	31
4	578	227.225477448387	32
4	578	227.225477448387	33
4	578	227.225477448387	34
4	578	227.225477448387	35
4	598	230.394680942071	36
4	598	230.394680942071	37
4	598	230.394680942071	38
4	598	230.394680942071	39
4	626	235.906137342854	40
4	626	235.906137342854	41
4	626	235.906137342854	42
4	626	235.906137342854	43
5	49	15.523969346145	0
5	49	15.523969346145	1
5	49	15.523969346145	2
5	224	90.560185257669	3
5	224	90.560185257669	4
5	224	90.560185257669	5
5	336	129.873724178579	6
5	336	129.873724178579	7
5	336	129.873724178579	8
5	443	168.647959675559	9
5	443	168.647959675559	10
5	443	168.647959675559	11
5	607	230.404921005417	12
5	607	230.404921005417	13
5	607	230.404921005417	14
5	631	235.918952583079	15
5	631	235.918952583079	16
5	631	235.918952583079	17
6	227	90.570185257669	0
6	446	168.657959675559	1
6	634	235.928952583079	2

